   110
       -201.71267694
N         -16.79551040731228    0.95389063561818   -3.38539447107643
C         -17.46713677796368    0.80760897531808   -2.46261993406422
C         -18.32793146122901    0.60310270818288   -1.34594379437856
C         -19.69931555109018    0.82170811966793   -1.50234414246086
C         -20.56866063519480    0.58870339374434   -0.45038784742630
C         -20.07753527803233    0.12681588871510    0.76427786255160
C         -18.71918273058138   -0.09769063468989    0.92649530763932
C         -17.82569713947863    0.14132973936978   -0.11677277693247
H         -20.07385937220788    1.17253613851724   -2.45687338383008
H         -20.75522372050932   -0.05722591002521    1.59001068213628
H         -18.33989231789513   -0.44344801336496    1.88178297667161
O         -12.58278546809368    1.88776946470106   -1.84212687559179
S         -12.74450705628993    1.69067287501898   -0.42139262631131
O         -12.79096289189639    2.84810100030364    0.44347531335288
C         -14.11422287980444    0.61306615327518   -0.07355332627826
C         -15.44325590895315    0.87549653095973   -0.30193885921018
C         -16.38207513924048   -0.09118374151255    0.08190630029883
C         -15.94144793827461   -1.27600816083814    0.67784124265786
C         -14.59307882492477   -1.52874649603963    0.88673528316130
C         -13.65642930183996   -0.57202839112306    0.50795904643755
C         -12.19955205755006   -0.63123771863793    0.64139624435865
C         -11.42122215538921   -1.66711126478487    1.14912518561979
C         -10.04116896118579   -1.52687663025343    1.18007631564346
C          -9.40769065083128   -0.37000114835460    0.71456672185840
C         -10.18932062491312    0.67586377239516    0.20354723889332
C         -11.55323101590207    0.51791775387746    0.18062329062811
H         -15.75575697908238    1.81029579188782   -0.74957263425811
H         -16.67056117062873   -2.02524868157150    0.96606462257574
H         -14.27998505763629   -2.46121036503549    1.34178086123917
H         -11.88083867036465   -2.57917513801263    1.51183262727768
H          -9.44032361725458   -2.34734115034930    1.55644580809864
H          -9.73463293688568    1.59326945881814   -0.14877466246460
N          -4.70177527236718    1.63832418841487   -2.25681316680043
C          -5.21478641503557    1.13754334168890   -1.35667232995021
C          -5.86666158121067    0.50586194747406   -0.25788336663359
C          -7.25700810287146    0.39571602571563   -0.27891855895600
C          -7.93989562955128   -0.25074531597597    0.74994293537474
C          -7.20008979473220   -0.78708002504319    1.80825471621986
C          -5.82024583182010   -0.68455075033214    1.83111848121735
C          -5.12771772809974   -0.03966596422745    0.80682490152234
H          -7.80041269094238    0.79942560525209   -1.12524651893031
H          -7.70971861092688   -1.27329318653400    2.63235100981411
H          -5.26891168272933   -1.09548438940892    2.66959662551977
N          -0.23946276443023   -3.19455256268302    1.80464563571065
C          -0.79891614446777   -2.23519523526685    1.50248032698003
C          -1.51526897904289   -1.05374393972270    1.15457014216103
C          -2.90968752309066   -1.09479818696887    1.14900535694281
C          -3.65514975565997    0.03996059416553    0.83857702948054
C          -2.98130396092630    1.23244199914735    0.56319414421418
C          -1.59790398028665    1.28133554209838    0.58131308466362
C          -0.84103958747548    0.14421323132732    0.85921456464334
H          -3.41070042879329   -2.03102027218237    1.36719960370758
H          -3.54422329149374    2.13150768264670    0.34234832273501
H          -1.09333724056876    2.21330812202304    0.35247557643716
N           3.85052327543605    3.23000700095068    2.71323597903901
C           3.34985064948283    2.34864381467009    2.16802474554027
C           2.70551035265844    1.27057866584321    1.49523934743749
C           1.31021567664557    1.22504951113872    1.49111897968122
C           0.63308053833063    0.19891698948842    0.83800421127496
C           1.37434656589823   -0.77026926090145    0.15728897326716
C           2.75657802042555   -0.71932094437596    0.14334678941863
C           3.44779619222743    0.28630480722613    0.81897294051670
H           0.75649389914570    1.98920918244142    2.02457440164404
H           0.86413214546862   -1.56412806262126   -0.37512565687972
H           3.31350202547506   -1.48792926216035   -0.38046298969533
O           7.94195620062947   -1.56554804747078   -2.22669939782027
S           8.08201454119567   -0.21954033350932   -1.71705349125102
O           8.00973839545063    0.88585492854183   -2.64500725663558
C           6.98634335183182    0.04174116229178   -0.34335686603607
C           5.61342473795846    0.06276664916309   -0.38114894427145
C           4.92180689716505    0.28983857810178    0.81671361113111
C           5.64357256617928    0.48322428322386    1.99776849217989
C           7.03039913823768    0.44954951525230    2.01642232444722
C           7.72192159974146    0.22303388089056    0.83027709951771
C           9.16950548863389    0.13839904409897    0.62843044364389
C          10.17979811186928    0.25026955777514    1.57873848090161
C          11.50281144439948    0.12867362191205    1.17981225240607
C          11.85284241074302   -0.09902612420532   -0.15531949287178
C          10.83696705507856   -0.21239854005109   -1.11522255754354
C           9.53315853106389   -0.09392400826608   -0.70009073822819
H           5.08094585962675   -0.07368925410873   -1.31413651454365
H           5.10811735918553    0.64393788316468    2.92623946771688
H           7.56286395323565    0.59423730342044    2.94906602074139
H           9.94250017360721    0.42388722137207    2.62181119705555
H          12.28275123079835    0.19337186301199    1.93020692839224
H          11.06984356048784   -0.37128563181818   -2.16070075291497
N          17.30237793396984    1.83428263006606    1.02349675207410
C          16.54908276856689    1.21101968885417    0.41641268860377
C          15.58859895058142    0.43429019943745   -0.29445229253487
C          14.24753742110336    0.54485462028242    0.07414566898805
C          13.26646225031498   -0.22265327775813   -0.55031714845693
C          13.65671121670581   -1.11392899703340   -1.55492382921856
C          14.98574318922278   -1.22772400416197   -1.92272434564633
C          15.97451462285402   -0.45782900631498   -1.31020933425124
H          13.97688774162004    1.25390040392123    0.84797475269451
H          12.91601739701080   -1.73734115184294   -2.04243005075710
H          15.26231900455645   -1.91694801692964   -2.71284760816360
N          20.94808560939295    2.49796186507731   -2.73824137392806
C          20.30195987451368    1.56399586851293   -2.55507572320720
C          19.50450527265033    0.40327013110788   -2.33471187699573
C          18.17370012122564    0.53896008361632   -1.93782872306731
C          17.38419177759412   -0.58934327349742   -1.72572871067535
C          17.94071929483566   -1.85542580485022   -1.92418652926189
C          19.26495780037723   -1.98980832955159   -2.31448637198874
C          20.05255459670893   -0.86902444716849   -2.52014154951567
H          17.75467765926905    1.52991390566810   -1.81150570695165
H          17.33841458194487   -2.74004410373470   -1.75054021815021
H          19.68538598877494   -2.97889733831336   -2.45696217682785
H         -21.63051571753553    0.76409750784058   -0.57732077669706
H          21.08741039037760   -0.97053855509539   -2.82418965622370
