    40
        -71.98623384
C           8.04236582818789    0.27700477306707   -0.82171792362332
C           7.41380487150347   -0.58579240972606    0.06404900539726
N           6.09448527274552   -0.62282346728651    0.18100622801438
C           5.37579557770860    0.20500020515992   -0.58885697766668
C           6.02137295042470    1.06575158754469   -1.47993821988205
N           7.34178438467407    1.10184429919918   -1.59449269960889
H           7.98192296482888   -1.26232730040393    0.69490979276238
H           5.46702453629467    1.74356041010530   -2.12078160507960
N           1.26409590649010   -2.61398059301421    2.44189068866502
C           1.56302236230849   -1.85370964077963    1.63039068073980
C           2.00335225490926   -0.91088709144654    0.65797446847651
C           3.37903568729239   -0.79647759950476    0.46184909087835
C           3.91623431907756    0.13551390650362   -0.42743929074124
C           3.03265773168114    0.97334919825887   -1.11827012304810
C           1.66920637931255    0.86474389302218   -0.92916590111973
C           1.11893770508679   -0.07772352715320   -0.05420485456525
H           4.05027541039082   -1.44193653307277    1.01762256605285
H           3.40554797440881    1.72044431939928   -1.80885452066436
H           0.99468950880516    1.52005828701187   -1.46966678668767
C          -0.34278403667794   -0.13166661763440    0.06873856548786
C          -1.06864411007181   -1.26660295615492    0.43877741007585
N          -2.38752718874328   -1.25875950060075    0.51842876699437
C          -3.03764459104326   -0.12461830177645    0.22735063587781
C          -2.31262722225475    0.99825194511053   -0.18122403309808
N          -0.99366738682159    0.99357069349250   -0.25983870543568
H          -0.57817810889639   -2.20855384724490    0.65620744767286
H          -2.80376028273444    1.92587716213690   -0.45683508758708
N          -8.14879878223202    2.95940895888341   -0.10432445685578
C          -7.49446235137182    2.02762748321112    0.06082584877891
C          -6.68963666006082    0.86970519366470    0.26628063785136
C          -5.30169246634219    0.96018214249110    0.14999055789443
C          -4.50198337133978   -0.16635943917681    0.34483125300175
C          -5.12043248932886   -1.38226088998621    0.66342174828961
C          -6.49705929275501   -1.47175571563674    0.78016697517648
C          -7.29012885355061   -0.35225957016819    0.58215489834947
H          -4.86329687733349    1.92136973708930   -0.09016159524337
H          -4.50067617825064   -2.25864323064933    0.81747992558026
H          -6.95725879283144   -2.42179269491968    1.02687641381052
H           9.12258281089128    0.30948956878568   -0.91627711676314
H          -8.36813539438213   -0.41492283780029    0.67052629184263
