    60
       -116.08273100
O          -7.94063002697113    2.98913037300414    1.08959122425300
S          -7.98338209439197    1.59617622226752    1.47541165382093
O          -7.96037904765099    1.26472712809883    2.88275447728980
C          -9.31869211323422    0.76011496050187    0.65651081001697
C         -10.66554140153646    0.97164596921824    0.84492573207879
C         -11.55186133569697    0.20234088012847    0.09487971569007
C         -11.07719317185459   -0.74125466050307   -0.80752728370091
C          -9.71352335097546   -0.94277595701657   -0.98602456494197
C          -8.81538978822649   -0.18195199391590   -0.24406767081033
C          -7.35131699178102   -0.23240229134639   -0.27641147878509
C          -6.53126451537835   -1.04807042418310   -1.05204873693784
C          -5.15621349680740   -0.93596168142091   -0.92943460681683
C          -4.55933235109853   -0.02472535402126   -0.04660928494656
C          -5.38490845762727    0.79763290790373    0.73561247782071
C          -6.74533589708557    0.67102048366813    0.59919516925161
H         -11.02217751919819    1.71034470454205    1.55154210341146
H         -11.78149300233103   -1.33128857533255   -1.38311753864307
H          -9.35856231846859   -1.68270891164493   -1.69382742846465
H          -6.95865094449894   -1.76355872352790   -1.74482195935044
H          -4.51149630858415   -1.56809494858383   -1.53053556036467
H          -4.97743504321372    1.51805649221233    1.43303118407549
C          -3.09591416092572    0.03904585340957    0.03030121435595
C          -2.39262614447752    0.90688024468917    0.87129165859973
N          -1.07315799696186    0.93159259917810    0.90964733708069
C          -0.39572531165436    0.09336430193938    0.11218816739836
C          -1.09892890705141   -0.77422961487018   -0.72922436608457
N          -2.41920420848198   -0.79916267055479   -0.76759372121168
H          -2.90218778750015    1.60063484718888    1.53170452693569
H          -0.58845904532872   -1.46737000926612   -1.38980613758261
O           4.50296872422354   -1.10234636968637   -2.70203801942447
S           4.51810699136953   -1.43200088056268   -1.29445513432902
O           4.48365071528820   -2.82414743156227   -0.90589117430599
C           3.26375000207068   -0.51626930015714   -0.43058685500944
C           1.90527162140222   -0.65424117030410   -0.57780848317011
C           1.06703360906112    0.16348295339569    0.19593825430193
C           1.64984485824306    1.08146738974604    1.08177881672072
C           3.02203776976716    1.20549484797707    1.21579285777027
C           3.85506622597530    0.39469855100753    0.44829687710935
C           5.31667490822952    0.35778512345020    0.42856965420927
C           6.20662995310513    1.12593278681131    1.17342691003283
C           7.57148777532252    0.93967400184880    1.00913491407432
C           8.08374725486094   -0.00361554691036    0.11126061588849
C           7.18540153964934   -0.77995759737559   -0.64125384122569
C           5.84027208341164   -0.58137087960588   -0.46526057153592
H           1.50813734272568   -1.37934103841295   -1.27656105454144
H           0.99539240643220    1.70973624018125    1.67627425296763
H           3.43738931592659    1.92608896184614    1.91060356505873
H           5.84339079912799    1.86539173794593    1.87768795098972
H           8.24600266601749    1.54905151471574    1.59932422842701
H           7.56128527717382   -1.51578571580871   -1.34183756200609
C           9.52552838758951   -0.21829190783119   -0.07996233133378
C          10.51986527749182    0.48416797649950    0.60496010408850
N          11.81048094557387    0.25831338821715    0.40114058185581
C          12.13205406861498   -0.67370091349716   -0.49086612313878
C          11.15470264816318   -1.37883470173477   -1.17805077547525
N           9.86489529767575   -1.15458037521085   -0.97576473445166
H          10.27864854920251    1.24830543497444    1.33661659266080
H          11.41226651783141   -2.14051818207307   -1.90706391935217
H         -12.61932396252176    0.34278491745215    0.21795076995983
H          13.18852316998763   -0.85662596709902   -0.65589348025352
