   118
       -231.11389951
O          20.51649382723491    2.59050502387830    1.22487953137656
S          20.42815804148093    1.64638479511155    0.13316238323822
O          20.47523242740951    2.14568222129196   -1.22240416744598
C          21.59071723559096    0.32308229516740    0.35780819243967
C          22.96339035059307    0.41164409961154    0.30725790502820
C          23.69442769700343   -0.75585447628157    0.51308055105966
C          23.04586711179542   -1.95933485266756    0.76035895600469
C          21.65858318298871   -2.03176952000746    0.80833888923441
C          20.91451546173428   -0.87402339855034    0.60410746170609
C          19.45601112865087   -0.72864303189812    0.60500372396039
C          18.49328264018018   -1.71178671065696    0.81241112156845
C          17.15064413875210   -1.36808100640753    0.76012492419138
C          16.73516021338439   -0.05643829513726    0.50549298213183
C          17.70230506920396    0.93809608311435    0.30342258360886
C          19.02673444417655    0.57685284792289    0.35748255851386
H          23.45583941093246    1.35607650302108    0.11314547852431
H          23.63053473848446   -2.85868576655885    0.91814329350298
H          21.16776467422673   -2.97848980892859    1.00169412018056
H          18.78203237779097   -2.73653091825450    1.01482933536759
H          16.40577104901248   -2.13507519818341    0.93996415677703
H          17.41720933217800    1.96012884182866    0.08707901230942
O          11.57500859362660   -2.49756954680415   -0.01291307236020
S          11.74452061150884   -1.29591045016958   -0.79886283152023
O          11.86023519501994   -1.41572785679844   -2.23474080815152
C          13.06674538624397   -0.30747396861796   -0.14524909258413
C          14.39811369821837   -0.64063936364055   -0.11954781570989
C          15.30081395010027    0.27075878811646    0.44702291449028
C          14.81585068678239    1.48067184311852    0.95476779506549
C          13.46540045400967    1.79802650173334    0.92067271439805
C          12.56527151799771    0.89293004549603    0.36487384692226
C          11.11198407355481    1.01546831057451    0.23883637088399
C          10.29086567004634    2.06173288432083    0.65339838232743
C           8.92329554686183    1.96771944868877    0.45333511994838
C           8.33679921325724    0.85106184357381   -0.15816693724151
C           9.16149814812916   -0.20368307859776   -0.57736645256066
C          10.51374282233867   -0.09133185334230   -0.36945792745038
H          14.74014075035468   -1.57618903304950   -0.54400736191243
H          15.50786759499272    2.18201070088553    1.40733054744809
H          13.12039737297506    2.74055461702147    1.32952150078370
H          10.71163758211380    2.93898981447127    1.13081507990425
H           8.27567832456737    2.77519449160262    0.77766571148547
H           8.75630748027218   -1.09530804280775   -1.03834203472521
C           6.88028233199563    0.80813028477632   -0.32338140664448
C           6.22086070961051   -0.11657175277624   -1.13945595664143
N           4.90293148111956   -0.15248906565188   -1.23925722288312
C           4.20461440767795    0.74491502714208   -0.53314145797646
C           4.86101762180986    1.69544328609120    0.25418488650859
N           6.17660471250780    1.72448490501828    0.35906577184902
H           6.76723491682186   -0.84236815442620   -1.73267083604373
H           4.29337886873901    2.43512973587828    0.81006055360803
C           2.74947739423038    0.67611311533741   -0.61731679584975
C           2.10198991292127   -0.28972327659085   -1.39304476985471
N           0.78627622240826   -0.36867970360318   -1.45124095668814
C           0.07096922974817    0.51650574566699   -0.74000216742641
C           0.72393108272338    1.48460843263722    0.03016387395539
N           2.04284477463801    1.56407215002337    0.09235786135816
H           2.67671131717189   -1.00786702757184   -1.96949533700631
H           0.17213369659134    2.20713393957775    0.62237546336842
O          -4.86626403206964    2.19471622551920    1.70671783871066
S          -4.91077627269323    2.12911472746674    0.26343962752954
O          -4.97019134676381    3.36399639314167   -0.48642466318759
C          -3.61396475314559    1.08586056655638   -0.35643094623607
C          -2.26408408781039    1.32182206898112   -0.26612622767670
C          -1.38704726478649    0.37120286889303   -0.81066562785509
C          -1.92319975530925   -0.76458902981597   -1.43428155828593
C          -3.28787047984352   -0.98380131738340   -1.51580817686873
C          -4.15952139790251   -0.04859611383493   -0.96305312757970
C          -5.62125952102129   -0.08737338253030   -0.91724755538080
C          -6.47361562577800   -1.06915738085655   -1.41472676695478
C          -7.84360017736907   -0.92182647798254   -1.25719216495446
C          -8.39614606533528    0.18887645503658   -0.60967620225741
C          -7.54048487813139    1.18123528539433   -0.10948649287484
C          -6.18725015635553    1.01759752640034   -0.27619009485813
H          -1.90240710435312    2.22387790182838    0.21059035726579
H          -1.23751221864337   -1.49034876133375   -1.85810965168712
H          -3.66722747799770   -1.87549713960373   -2.00105940466611
H          -6.07759556641087   -1.94052396802962   -1.92298473108847
H          -8.50202785555183   -1.68071325727026   -1.66462771848506
H          -7.93110856033817    2.04461014250893    0.41444951250561
O         -13.25796943021472   -2.82838271559919   -0.96592848603260
S         -13.19992591673138   -1.93889044059997    0.17202595176183
O         -13.03318020963061   -2.50602637011184    1.49050980397952
C         -12.00105028734586   -0.65749122873554   -0.10840251978463
C         -10.64266671357898   -0.81994809478264   -0.22639755576089
C          -9.85482674062557    0.31677230751360   -0.45905140372891
C         -10.47649787328012    1.56682816056205   -0.55389081703734
C         -11.85054383319022    1.71018416759944   -0.43057267880783
C         -12.63618449333247    0.58283617861410   -0.20622093235059
C         -14.09009573267937    0.50354968893221   -0.06337480955572
C         -15.01739257812768    1.54022516189998   -0.11624443499039
C         -16.36808626726642    1.25451854853906    0.01871832508874
C         -16.82821041309000   -0.05398087002368    0.20713761136493
C         -15.89135271838157   -1.09958525523529    0.27809434808379
C         -14.56099056012300   -0.79711809058643    0.14196561869811
H         -10.19431654586912   -1.80025037864743   -0.12381240850809
H          -9.87351499932239    2.44602838822032   -0.75124888767779
H         -12.30239178376497    2.69156977432466   -0.51583444460207
H         -14.69268022287610    2.56374836062707   -0.26361479108942
H         -17.07418257038063    2.07607088038243   -0.01862043221078
H         -16.22788546495253   -2.11773314892990    0.43215392305779
C         -18.25331433362497   -0.38413745975989    0.32541342289447
C         -19.28900975784393    0.50904078389083    0.03587191562610
N         -20.56349758023472    0.16764784206913    0.13572426420161
C         -20.83990959454504   -1.08164814725182    0.52661689486866
C         -19.80803168253520   -1.97998985283993    0.81253576580518
N         -18.53773464259798   -1.63681099047297    0.71282236140646
H         -19.08944383170202    1.52274257377627   -0.29653248032871
H         -20.03382545926319   -2.99424890226507    1.12646446386907
C         -22.24763093596207   -1.46395829996920    0.63043130751565
C         -23.27774138772953   -0.56846424694059    0.33581132936099
N         -24.55299800464350   -0.91706565763818    0.42446038584047
C         -24.81089428746840   -2.16513020721295    0.80834783309363
C         -23.79234348069906   -3.06083347462888    1.10346377715859
N         -22.51392274181439   -2.71688859968676    1.01680531448550
H         -23.05199501936982    0.44604935583063    0.02284751426395
H         -24.00743832343255   -4.07776453006320    1.41618217622048
H          24.77704960190031   -0.72315874091149    0.47933147722857
H         -25.85472649251714   -2.45245326775743    0.88053492504201
