   130
       -231.55366242
N         -20.87662177540569    0.62713851388977    1.68538322579360
C         -20.91654948652794   -0.21050879068962    0.89666749679209
C         -20.99805652513759   -1.25299505686490   -0.07022330756484
C         -22.25600537337483   -1.77196480618889   -0.39028671895275
C         -22.37470729236076   -2.80616973153087   -1.30283657685290
C         -21.23695205074697   -3.33712813497085   -1.89780154148126
C         -19.98538986910510   -2.83307544835217   -1.58082244748986
C         -19.84330116456359   -1.78468028935222   -0.67166858873372
H         -23.13650438631064   -1.35672878415546    0.08614319465439
H         -21.32558945649528   -4.14634599196493   -2.61359282652698
H         -19.10355813231966   -3.24317849977865   -2.06021797806742
O         -14.31681904607485   -3.28591457843019   -0.75228174069322
S         -14.71431196304975   -2.56306426271388    0.43603196630102
O         -14.80879454146316   -3.28202521126284    1.68682983445169
C         -16.19991467790228   -1.63969448276001    0.12909735051680
C         -17.44443139336077   -2.15617848876480   -0.13743597121008
C         -18.49964789421138   -1.26127294584240   -0.36165930219207
C         -18.25059273957935    0.11304054202928   -0.31038482937470
C         -16.98501241635046    0.61493757015206   -0.04214923279321
C         -15.93409174897644   -0.26935261400492    0.18186813101481
C         -14.53041652051550    0.04078725685467    0.46349271473713
C         -13.92877230583031    1.29085418107915    0.57434014870627
C         -12.56512484841299    1.36945033042818    0.82338878805242
C         -11.77922097721390    0.22256692357020    0.96724514581882
C         -12.38461558460055   -1.03807699263381    0.87907211267707
C         -13.73337900764914   -1.09495472836420    0.62623540325902
H         -17.60857244564629   -3.22643591473525   -0.15601748248001
H         -19.06115301786558    0.80644858288262   -0.50209497996708
H         -16.82297085596352    1.68611595188541   -0.01398651636902
H         -14.51312303635073    2.19736943765814    0.46752373867030
H         -12.10140866710196    2.34396068675628    0.92776620637479
H         -11.79779317063025   -1.94183966246968    0.98604294233057
C         -10.32920636892701    0.30504558160502    1.23658122000402
C          -9.82739194786160   -0.35486977869713    2.35878324740682
C          -8.48180885320209   -0.31538601034643    2.66988441922552
C          -7.58202463763291    0.37597756717047    1.85065792469485
C          -6.18354380806926    0.41400582464700    2.13176955414551
C          -5.31619677681691    1.06051927821755    1.31425333992164
C          -5.76198683081112    1.74329919752236    0.14000393137551
C          -4.87677129974761    2.39520672269961   -0.74737227526960
C          -5.38299275272437    3.01917986262130   -1.89137110819564
C          -6.73332975687478    3.01528698719357   -2.17779256259516
C          -7.63685623977121    2.36087480587903   -1.33248139145937
C          -9.03084356612632    2.29662121031239   -1.63097414221237
C          -9.89600153431686    1.64141355005716   -0.81801585101846
C          -9.45226641360322    1.00427475232471    0.38302263857846
C          -8.06419847772201    1.03893432272477    0.69247726722331
C          -7.15257486135237    1.71904763555148   -0.16303311350525
H         -10.51371781892265   -0.89032432489214    3.00575999645132
H          -8.11479358038422   -0.82648168214765    3.55306011918591
H          -5.82379980132765   -0.09979346026711    3.01690924659245
H          -4.25912507790591    1.06535442584553    1.54923836009531
H          -4.70041851421619    3.53700070531712   -2.55671759739148
H          -7.10043640494665    3.51500669412437   -3.06743724256535
H          -9.38436832918997    2.77319085595462   -2.53923036078911
H         -10.94505687653908    1.58001880272918   -1.08413877971356
C          -3.42016750269583    2.40157266791721   -0.54141463503663
C          -2.54910258598753    2.16615752296444   -1.61054929284857
N          -1.23810634340986    2.13268711947355   -1.45792238787871
C          -0.74378629842893    2.34724548605984   -0.23041523087468
C          -1.61117226473459    2.59097128295012    0.83465418892413
N          -2.92718842439456    2.61490211450433    0.68400605494119
H          -2.93027394560040    1.97041216560129   -2.60799295859359
H          -1.23987117135414    2.75386269258360    1.84174354480542
N           4.03551503146306    0.22119396519872   -2.91798777980053
C           3.49569326902352    0.73156916248291   -2.03948519868709
C           2.80655895859271    1.39006667345150   -0.97966002438307
C           1.43132769573909    1.57609238886344   -1.08675524341078
C           0.71446223597512    2.24268509270789   -0.09149060145241
C           1.41476747509198    2.76274733415520    1.00106210734672
C           2.78471666450285    2.59008350840947    1.10675922872718
C           3.50059747378201    1.88629887548817    0.13917532675978
H           0.90216028893293    1.19035102658463   -1.95085266472587
H           0.89213054810524    3.31232084178308    1.77544832458780
H           3.30828505138090    2.98466982428396    1.97065971068373
O           7.67256761224361   -1.89596519558987   -1.11770663354893
S           7.69164875547631   -1.36881306055269    0.22696744181084
O           7.29769822191473   -2.23241169178927    1.31841635089339
C           6.81270034394405    0.17197652782813    0.32432026830842
C           5.46494758801074    0.35763622717425    0.13859701078241
C           4.94632772643920    1.64896686807361    0.30351438533720
C           5.80725421244514    2.69365077298249    0.64955072037653
C           7.17039925702389    2.48829760565537    0.81414792114450
C           7.69143265157606    1.20803037686125    0.65114983256372
C           9.08394301497301    0.77056859050515    0.77830710784153
C          10.20922612304555    1.54049907132171    1.05795404967343
C          11.45479638183066    0.92926959566442    1.11261678277554
C          11.60774618721744   -0.44349142970015    0.89829647448812
C          10.47562894995186   -1.22580294404763    0.63544460065148
C           9.25412244435445   -0.60115489360109    0.57577913091188
H           4.81876236976806   -0.47473898426650   -0.10947469595916
H           5.40365201677777    3.69295345791943    0.77080496940918
H           7.81619169280257    3.32043690306736    1.06960760833285
H          10.12073459282834    2.60694717795115    1.23075634354418
H          12.32815338265395    1.52787118496312    1.34622245422492
H          10.56698676080859   -2.29084175913407    0.46248821774160
C          12.93074092950193   -1.09579302401144    0.97285560255340
C          13.09174656959098   -2.16365311405897    1.85628081306664
C          14.30556234935431   -2.81183852278278    1.98206606578228
C          15.40649704252433   -2.41529285733931    1.21441536368749
C          16.66465160566065   -3.08390812026116    1.30012228944713
C          17.72347431443032   -2.69221419154431    0.54863657990884
C          17.63092898949415   -1.58784951781553   -0.35567554886350
C          18.71596319259691   -1.15572229189189   -1.14511895966280
C          18.52216595212854   -0.16031080697998   -2.10564530363866
C          17.29859230171154    0.45929732141855   -2.26060811549174
C          16.21212437605357    0.09636286330743   -1.45525454183714
C          14.93560076785209    0.72129739634164   -1.58742388831194
C          13.88521396735721    0.35068446460698   -0.81391337804856
C          14.01082135489430   -0.68104081716837    0.16866085693626
C          15.26332794672635   -1.34267233599869    0.29629413036502
C          16.37089507727635   -0.94302094910674   -0.50191646019940
H          12.25041973779601   -2.47432888506427    2.46621335931367
H          14.41021066213554   -3.63553209011897    2.67955632200541
H          16.75295386236879   -3.92884749204613    1.97486857777536
H          18.65564396670969   -3.24207017606467    0.60761627031390
H          19.36375092363407    0.13020464782878   -2.72513055313283
H          17.17324747618488    1.23704925660317   -3.00589914411866
H          14.81966295995730    1.50022040240560   -2.33363030299323
H          12.92032025524174    0.82598860066107   -0.94940942295067
C          20.07766803793866   -1.69911965114769   -1.00783319041774
C          20.70159920191884   -1.89014569740388    0.22713303895610
N          21.93558073465533   -2.36567439486921    0.32481770001637
C          22.57093389151582   -2.64037250701484   -0.81133825953510
C          21.98097022727559   -2.39933186735788   -2.04254218403062
N          20.74424120169502   -1.92888338827577   -2.14484637195491
H          20.20392116790785   -1.62454137747491    1.15432947674862
H          22.51102739562469   -2.58856657598746   -2.97074145508744
H         -23.35352563690572   -3.20047864410823   -1.54957704608159
H          23.57461365523493   -3.04455789154536   -0.73071033046484
