   194
       -306.40034120
C         -25.41506713201710    2.51418226289508    0.83439634768898
C         -24.73998978408937    3.57730311670512    1.41390086716567
C         -23.35575574794695    3.64112601105937    1.37521219768775
C         -22.61441894273828    2.63355518783413    0.74819565942411
C         -21.18571009477582    2.65467320456239    0.70325762336221
C         -20.48547926676178    1.67061966522431    0.08736825680600
C         -21.14244933190043    0.57362181204397   -0.55612972879714
C         -20.43428411365807   -0.45435114596022   -1.20826950401164
C         -21.13362129512517   -1.51626648260435   -1.78309541568932
C         -22.51437710656479   -1.57994039566617   -1.73198216384170
C         -23.25177596931095   -0.57408692328690   -1.09771721839538
C         -24.67960416896040   -0.60795039704510   -1.03038630654773
C         -25.37825816974809    0.37647212117175   -0.41279908884169
C         -24.71239895253287    1.48666761167205    0.19507112461072
C         -23.29442023498003    1.54356464612443    0.14553217024682
C         -22.56098358093132    0.51410329877145   -0.50300686634259
H         -25.30088255320895    4.36573946105353    1.90381472462599
H         -22.83739583262249    4.47635730465576    1.83375882059633
H         -20.66854661568268    3.47905663997272    1.18291075436313
H         -19.40153280585221    1.69974588488797    0.08025855711652
H         -20.57977296638363   -2.29390044143084   -2.29785341634337
H         -23.03369567774990   -2.41386698233890   -2.19193122785862
H         -25.19383587320121   -1.44635809122409   -1.48842805444557
H         -26.46181146973447    0.34025624448656   -0.36678539751439
C         -18.95981517187123   -0.40866926097076   -1.32628408287519
C         -18.37010638350535    0.64131593984465   -2.03136538763555
C         -16.99932183718118    0.71613115496990   -2.19504592904114
C         -16.16215616396518   -0.26217026656034   -1.64728417660738
C         -14.74286773727687   -0.21604662309101   -1.80237900577519
C         -13.94361748701071   -1.16078301318184   -1.24891464542458
C         -14.48778492394157   -2.24328448405150   -0.48724056901702
C         -13.67300462969935   -3.22676386707339    0.10778188413486
C         -14.26074171282845   -4.30477148011435    0.76764215091786
C         -15.63440804908659   -4.40245796923208    0.89744707157489
C         -16.47293842242959   -3.41855027829762    0.36147942853831
C         -17.89179763233975   -3.46101671734442    0.52170073580579
C         -18.68942563617262   -2.49937282065532   -0.00512759040921
C         -18.14861117182840   -1.41351262626757   -0.76409512973168
C         -16.73795496033469   -1.33781309928442   -0.92267620440406
C         -15.89924699938601   -2.33463559800359   -0.35259557113036
H         -19.00618155567852    1.39982771487597   -2.47466682427206
H         -16.56540669637538    1.53797953736029   -2.75407935639931
H         -14.31541691597683    0.59817523442957   -2.37805881761867
H         -12.86890848893947   -1.11185564684822   -1.38305613555510
H         -13.62264127530104   -5.06352343798043    1.20793192156769
H         -16.06914849691975   -5.24091301259954    1.43075476284988
H         -18.32048240045104   -4.28074351861242    1.08874819133518
H         -19.76217683230389   -2.53998670645083    0.14741423162390
C         -12.19621630493275   -3.14160155640895    0.04600444803040
C         -11.48573630608853   -4.13134438677251   -0.63081492880269
C         -10.10710095536796   -4.08044434840270   -0.73365636401750
C          -9.38638396562351   -3.03404522840716   -0.14739028766197
C          -7.96580346304995   -2.93395082874767   -0.26115970262407
C          -7.28190885413761   -1.92035016776430    0.32486375406016
C          -7.95003353492116   -0.91532015170384    1.09374863807121
C          -7.25695541688312    0.13866143633689    1.72043406725356
C          -7.96874232746951    1.11521088568727    2.41893445934860
C          -9.34616254276856    1.06215333658493    2.52360001315886
C         -10.06639286071759    0.02178267120167    1.92587506462202
C         -11.48678225624665   -0.07662057021933    2.03833466103164
C         -12.17096467507683   -1.08652664551153    1.44702637492854
C         -11.50135557956362   -2.09050327404508    0.67747129737880
C         -10.08532948811474   -2.03327532462332    0.57682216605337
C          -9.36630422706311   -0.97503802307389    1.19764383358889
H         -12.03117876123083   -4.94137657980002   -1.10309202761489
H          -9.57679775171393   -4.85325012899477   -1.27961178639208
H          -7.44234127167202   -3.68978683300193   -0.83738560102535
H          -6.20555088840345   -1.85435715987478    0.21132663129744
H          -7.42296062813963    1.91437850436833    2.90887221822601
H          -9.87639040297063    1.82665850339596    3.08118446123473
H         -12.00992135101426    0.67769974957621    2.61678347386766
H         -13.24774052679393   -1.14972524748110    1.55523569632781
C          -5.77942866800463    0.20640225006165    1.70083094931203
C          -5.04878976655110   -0.82774204864483    2.28804557219609
C          -3.66869299664450   -0.78402708766457    2.35422922913789
C          -2.96477715512432    0.30608533993400    1.83062186144303
C          -1.54141657309230    0.39447798792491    1.90791417672368
C          -0.87405326775606    1.45838985103647    1.39790494363338
C          -1.56549068122145    2.53228753093888    0.75254472588612
C          -0.88932257926516    3.64908409729030    0.22201050770075
C          -1.61613169570255    4.69306023636229   -0.34547170904445
C          -2.99636728583068    4.64010902202937   -0.43122568719174
C          -3.70078822628293    3.53938784455951    0.06868884238340
C          -5.12389158450741    3.44492750646424   -0.01775021981186
C          -5.79171805477129    2.38099667302024    0.49259262180728
C          -5.10334371271216    1.31187934599225    1.14916253076423
C          -3.68456444432768    1.36396581346735    1.21678633321387
C          -2.98300846496674    2.47730260562486    0.67808250616697
H          -5.58065534659218   -1.66729522140787    2.72247951355318
H          -3.12322433055387   -1.59477069538711    2.82483033228012
H          -1.00189839639398   -0.41166206964780    2.39391729088754
H           0.20568726705822    1.51181917297000    1.47809774807049
H          -1.08418957018880    5.55122760360413   -0.74183190384103
H          -3.54117669568065    5.45767060791668   -0.89082436233429
H          -5.66325772174770    4.24830295909988   -0.50863646751977
H          -6.87085663825790    2.32333466622661    0.40304716358717
C           0.58727992008300    3.74151921328397    0.30093479320501
C           1.15929535785498    4.70256607184507    1.13218184148736
C           2.53002143603273    4.77394369750276    1.30547160540916
C           3.37918735456326    3.87813905073447    0.64634804422132
C           4.79225221781103    3.87768887680436    0.85539048713392
C           5.59815162830738    2.99366983793125    0.21726752390336
C           5.07485990481696    2.04402602279098   -0.71687600135457
C           5.89494155677850    1.11797548833707   -1.39072232815973
C           5.32323603976195    0.20804305287802   -2.28035899238473
C           3.95963008185305    0.18926334434858   -2.51086605504151
C           3.11145621412619    1.07903234582511   -1.84234507806266
C           1.69636529540771    1.07034626725369   -2.04055449951962
C           0.88537221739584    1.91703416115570   -1.35992647148616
C           1.41435188774125    2.86350276825032   -0.42586776096998
C           2.82187375830062    2.92418668313271   -0.24446370084759
C           3.67103302610279    2.01886468384967   -0.93796787339544
H           0.51122070118075    5.38425556016907    1.67243438371369
H           2.95279558148404    5.51704029413882    1.97295251185975
H           5.20895924627111    4.59607032530625    1.55370082740266
H           6.66483659711677    2.99541451971369    0.41145102612395
H           5.96697083566669   -0.48637956419475   -2.80945247460458
H           3.53955101016150   -0.52463665282430   -3.21106538155018
H           1.28146920387862    0.36166969427756   -2.74970515098585
H          -0.18679731058250    1.89546942549636   -1.52073359794703
C           7.35858429027850    1.09644300659394   -1.16721468448077
C           8.12606176904746    2.20101543023376   -1.53665039863171
C           9.49423520107495    2.22315662616022   -1.33556272228371
C          10.14602321899876    1.13249049462186   -0.74948425691486
C          11.55078473821669    1.13974003202894   -0.49107170873439
C          12.16750723688640    0.07575536963332    0.07929365882664
C          11.44363094405992   -1.10879344379082    0.42857008039894
C          12.06777085407324   -2.23210169262186    1.00871615028777
C          11.29599791435557   -3.32944570571920    1.39039781060904
C           9.92863973520383   -3.35203138325504    1.18785551954179
C           9.27808692592941   -2.26238782714185    0.59846889483537
C           7.86481220401736   -2.24670844580287    0.39272340015200
C           7.24636111315967   -1.17765945081804   -0.16620980918278
C           7.98313800772997   -0.02571992748897   -0.58799727527159
C           9.38884638133286   -0.00900006002021   -0.37816377290275
C          10.03862016887963   -1.12775642447144    0.21307542955152
H           7.63720192178404    3.05081087787125   -2.00071823878152
H          10.07033721137321    3.09385930917844   -1.62960007663707
H          12.11646690121549    2.02775496540638   -0.75312611922745
H          13.23105096618218    0.11281426624605    0.28505129841752
H          11.78680815720583   -4.18564540775508    1.84069666460453
H           9.35085993878620   -4.21972967093910    1.48748453490394
H           7.29074364391608   -3.11274113645095    0.70538747438886
H           6.17000788502210   -1.18030710542410   -0.29651930451694
C          13.52236236661627   -2.26307573043553    1.27700759351245
C          13.94692873315239   -2.40818627668174    2.59809770253698
C          15.28965746838721   -2.40083036177448    2.92720896845184
C          16.26467296078475   -2.24295165378468    1.93595029681873
C          17.65780931257740   -2.18239080054078    2.24698792816185
C          18.58815980430491   -2.01039796882664    1.27608158448135
C          18.21517859525117   -1.90004810015830   -0.10076849045810
C          19.16423629395255   -1.69482822802617   -1.11894003980019
C          18.74660959337742   -1.57884011464143   -2.44354128834238
C          17.40824110606887   -1.67225197502607   -2.78253898177443
C          16.43492038207162   -1.86311708490156   -1.79575500367189
C          15.04391775123716   -1.95848333569646   -2.10933993335026
C          14.11109861452472   -2.09983128487761   -1.13589956897923
C          14.47786754132014   -2.15701196070893    0.24697647173508
C          15.85894947139773   -2.12871823854466    0.58063884400808
C          16.83693405138332   -1.96909932453789   -0.43890783002137
H          13.20252218644897   -2.50201980831147    3.38164731168375
H          15.59376340703996   -2.50195464384867    3.96346085594792
H          17.95564908433307   -2.26704805460888    3.28696256544793
H          19.64047960058539   -1.95094118625310    1.53140117556288
H          19.48978693021868   -1.42549350893217   -3.21857445941737
H          17.10665229323694   -1.59052279468762   -3.82116081161844
H          14.74817543419739   -1.91358350026657   -3.15232228584480
H          13.06114394332721   -2.17641540378261   -1.39508938784480
C          20.60993269922131   -1.59792637870838   -0.80115558653724
C          21.31318810380218   -2.74398214979647   -0.43417130644281
C          22.66745728183786   -2.69448130144186   -0.15289790826316
C          23.36613955462926   -1.48414378346107   -0.21896187871456
C          24.76410219713044   -1.39639828678749    0.06959362538623
C          25.42084742897141   -0.21146977054659    0.01344205621364
C          24.73958155514790    0.99739978707620   -0.33480319413977
C          25.39622578133069    2.23197876789884   -0.38785133159267
C          24.70485338812843    3.38558032157508   -0.72439915828727
C          23.35042878037526    3.33901304239975   -1.01648939246906
C          22.65551127824977    2.12530599386194   -0.97706964921489
C          21.25765913980690    2.03801041580130   -1.26578204749322
C          20.60153136532752    0.85283687340098   -1.21697386095003
C          21.27779384368806   -0.36213972888340   -0.87678406307711
C          22.66488800741170   -0.30350307208218   -0.57836960585628
C          23.35261042323422    0.93805831215538   -0.63226061638174
H          20.78691283754663   -3.69090645299086   -0.38230608850936
H          23.19478788458049   -3.60135725809167    0.12276137687788
H          25.28965054192437   -2.30694994734189    0.33805913942718
H          26.48153309983228   -0.15620930683168    0.23567649789598
H          25.22899433865853    4.33445355079159   -0.75861561006452
H          22.81953608059331    4.24835636356347   -1.27701046358295
H          20.72854508101455    2.94972545249544   -1.52281391441580
H          19.53945500786804    0.80735941183885   -1.43189219543009
H         -26.49830811270995    2.47408471549784    0.87350268727444
H          26.45577459238144    2.28180251166127   -0.16096168319385
