   156
       -283.00500447
O         -23.30449888545835    0.47146412390643   -3.20917260274413
S         -23.31145292327540    1.60604502041402   -2.31246749847796
O         -23.07752897639253    2.92403649307830   -2.85889383213990
C         -24.77219238901900    1.59677100654295   -1.30330602964872
C         -26.06893697357557    1.78672804645645   -1.72408569693621
C         -27.07394056738795    1.74571329167221   -0.76077007519913
C         -26.76211156820690    1.51847381274594    0.57384746821066
C         -25.44725498258356    1.32757475439810    0.98239185244749
C         -24.43210841556990    1.36733445721399    0.03193810811668
C         -22.99135734102315    1.20190411871951    0.24542262903232
C         -22.31924092129277    0.96782467413617    1.44107584089094
C         -20.93621611892672    0.85697125649663    1.43209370995925
C         -20.19610143186504    0.97284389516308    0.25115639970216
C         -20.87087769947963    1.19919805671170   -0.95667407023067
C         -22.23992162324867    1.30742490774382   -0.92681698685177
H         -26.29810515038836    1.96286683726533   -2.76747524304220
H         -27.55663245533338    1.49003214262916    1.31105371877240
H         -25.22020898693635    1.15183367969933    2.02744805827341
H         -22.86385799237370    0.87218549539940    2.37322044877238
H         -20.41951500742883    0.65981512035268    2.36483508495806
H         -20.32809589635094    1.30985772951803   -1.88712851741387
N         -15.35259402938907    2.41380602430551    3.32697304123308
C         -15.89908173246283    1.94831920822677    2.42754412815261
C         -16.60262905428801    1.37130540668686    1.33072778585282
C         -17.99588382681400    1.43563314612702    1.31707408370264
C         -18.72610118408606    0.87483198190289    0.27132705433555
C         -18.03326264885759    0.23630043489540   -0.76184536110937
C         -16.65121523445707    0.16257676202197   -0.74740687035917
C         -15.90958479509951    0.72661296041125    0.29111679836478
H         -18.50503388399651    1.95290516164695    2.12218572942140
H         -18.58171683756953   -0.21760252976188   -1.57934969273135
H         -16.13281110675036   -0.31858676601146   -1.56916711609562
C         -14.43350224106502    0.70668000022608    0.26737669019351
C         -13.75294011285966    1.92287701441070    0.33809488312584
C         -12.37548781668144    1.97947953285488    0.25048897984494
C         -11.62415727643501    0.80987449843706    0.09215881897343
C         -10.20421228737793    0.83987252288850   -0.04917489794912
C          -9.48686461477510   -0.30124714951241   -0.19463629829196
C         -10.11768467435482   -1.58543433524237   -0.19154042462592
C          -9.39312803613338   -2.78729045045600   -0.32985674307142
C         -10.07223239839716   -4.00379483317345   -0.39719731747943
C         -11.44928518368502   -4.06184367743305   -0.29172346083395
C         -12.20088874555825   -2.89264511493495   -0.12769399298117
C         -13.62168156557273   -2.92131458906125    0.01322079051086
C         -14.34006770697780   -1.77895246621758    0.14759552483076
C         -13.70828179703095   -0.49536813570687    0.14362678319258
C         -12.29026830664102   -0.44247033401331    0.05104450637457
C         -11.53500580044015   -1.63978395068089   -0.08904806728891
H         -14.32115212280191    2.84090149200140    0.43812388397001
H         -11.86983114993301    2.93765543784974    0.29330687600393
H          -9.70768992989143    1.80425850209968   -0.04852114170588
H          -8.41270869777776   -0.24670140402986   -0.32812823241347
H          -9.50250576574786   -4.92039658316785   -0.50633559982339
H         -11.95455760340145   -5.02066189575768   -0.32936372957227
H         -14.11854294661744   -3.88580520665871    0.01695502275791
H         -15.41574705203380   -1.82841953167760    0.27427619375055
O          -4.82097943571942    0.05157811972818    1.56061349501910
S          -4.61860720917894   -1.38038298835042    1.53523067794103
O          -4.53553501667600   -2.09263696111143    2.79010991826675
C          -5.78846537664339   -2.15263388072890    0.44655380264751
C          -7.15466066464456   -2.16336711296865    0.58862913406407
C          -7.91883196305502   -2.78643662312705   -0.40795118734497
C          -7.26917235907778   -3.40891253338729   -1.47731495699489
C          -5.88698166261943   -3.38825294369262   -1.60261838114421
C          -5.12628886516656   -2.73557805364185   -0.63700796444039
C          -3.67674166762742   -2.52940667792538   -0.61134297270977
C          -2.73007545543057   -2.93647805302579   -1.54696010789816
C          -1.40256676087758   -2.57284322155722   -1.37241831267707
C          -0.98727400706038   -1.80587944331024   -0.27883707751743
C          -1.93298148232214   -1.41937463320167    0.68165378747697
C          -3.24139068239441   -1.78939788876434    0.49083457136940
H          -7.62826189935398   -1.71104687513775    1.45083374823830
H          -7.86373870756943   -3.89420772387747   -2.24346567384852
H          -5.41210373053053   -3.86216919815354   -2.45382673748045
H          -3.02290599077103   -3.51657591024583   -2.41425946525310
H          -0.67559250427383   -2.86418176006103   -2.12221646258053
H          -1.64246548712387   -0.85084123072527    1.55621733840450
O           4.48430431327795   -3.69490484336791   -0.02301078550637
S           4.23756091525750   -2.58626508803585   -0.91669230916499
O           4.26256430392689   -2.82407523944459   -2.34281396054676
C           2.74827966097207   -1.72957273212976   -0.46150138041286
C           1.46429162159137   -2.20974542390952   -0.55074101633207
C           0.41327437404911   -1.36784115909953   -0.15996956398030
C           0.70812296430516   -0.08479726603538    0.31386986860391
C           2.01136229123234    0.38192523573574    0.39529431052101
C           3.05610290822154   -0.44619532394192   -0.00371951605556
C           4.48818717274362   -0.14613183933024   -0.02757242964876
C           5.12508434146249    1.03447441560035    0.34267642552118
C           6.50356636966930    1.12723644622951    0.22243665342972
C           7.27478408582092    0.06449291131053   -0.26017495323303
C           6.63686416949287   -1.12896809747199   -0.62706331652835
C           5.27068651820085   -1.20133266225839   -0.50227067510887
H           1.27367644729324   -3.21661172199798   -0.90064431892628
H          -0.10353055829841    0.57437182573278    0.60037130173426
H           2.20586502366705    1.38512755231069    0.75604556984713
H           4.55524841074301    1.87880614155983    0.71269379763659
H           6.99070226312134    2.05857543813110    0.48877586729814
H           7.20422817726041   -1.97839029537298   -0.98635788022622
N          12.09744432678826    2.54615071002574    2.10833124083964
C          11.55105056318951    1.89213724040751    1.33516899253812
C          10.84778689810928    1.09895441571048    0.38193999549295
C           9.47109704708812    0.93268571560381    0.53143128551529
C           8.73397188636083    0.20745438685736   -0.40267686764977
C           9.40401231725040   -0.35565069390551   -1.49333836626641
C          10.76885486304502   -0.18667397697816   -1.64907033303594
C          11.51649097470952    0.53377895786988   -0.71896653144723
H           8.98175144928838    1.36938477475755    1.39445230729835
H           8.84716672888107   -0.90845315240470   -2.24129579255596
H          11.26980718011307   -0.62636860044905   -2.50426146551497
C          12.96095627499171    0.75924972045917   -0.93008704685049
C          13.36125256940459    1.38477772651039   -2.11107992562707
C          14.68602248176855    1.70861838318659   -2.33560220036852
C          15.66266879794307    1.41248225286132   -1.37807845479543
C          17.02845312333503    1.79045878701702   -1.55076550919027
C          17.96489290109272    1.49466774649753   -0.61577591233675
C          17.63159404834158    0.76990917535889    0.57195183244619
C          18.58743943820735    0.44102361315656    1.55462842712852
C          18.18522047058649   -0.20419132548941    2.72469951132259
C          16.86657443455869   -0.56314601506865    2.92955791638847
C          15.89295594153582   -0.27264428441235    1.96757347128280
C          14.52697224458472   -0.65180355441201    2.13916408944931
C          13.58737285711681   -0.33686509492354    1.21413379357978
C          13.92318277532448    0.39504203856620    0.03175961477649
C          15.28556365409987    0.73524792089540   -0.18936477074268
C          16.27190679533852    0.40995392240103    0.78236046104083
H          12.61032090229453    1.64951900523597   -2.84775855963564
H          14.97196725379630    2.21203666313920   -3.25249633686974
H          17.30172492895579    2.33614970412497   -2.44757764567087
H          18.98870644632804    1.82085594788892   -0.75785510849518
H          18.93087766568445   -0.45163225270093    3.47268974202866
H          16.58107058684848   -1.07927926930626    3.83953789413182
H          14.25548116342578   -1.20423417606546    3.03245854624304
H          12.55896328037838   -0.64794713976004    1.35844193106231
O          23.33673736809967   -1.21243794272531   -1.26644406952664
S          23.14596233693910    0.21865347222846   -1.18535039909133
O          22.76648320354028    0.93695817839276   -2.38215036541768
C          22.05501616072690    0.63158668974708    0.15395649382156
C          20.71841850584623    0.32673064233710    0.24710818389138
C          20.02028663721748    0.75387594511791    1.38514664525581
C          20.70553854091739    1.45068306120641    2.38442945897638
C          22.05647490493455    1.74777996396513    2.27205928639584
C          22.75021187836708    1.33804253054429    1.13772771484013
C          24.16593503089705    1.54363106829134    0.81764394865196
C          25.12848673181916    2.19785737678129    1.57986473458119
C          26.42907673587031    2.28290704929292    1.09674094924605
C          26.77826482350458    1.72743370928087   -0.12780443050786
C          25.82578274975345    1.06972377978778   -0.90234336031114
C          24.54254076796980    0.99433389585286   -0.41012332575761
H          20.22369469301674   -0.24809385939931   -0.52559956577914
H          20.16160401515935    1.78195180882097    3.26219780589207
H          22.55905480930804    2.29566907895647    3.06068887952799
H          24.87186205853450    2.63589994381343    2.53741139481164
H          27.18282983238868    2.79145726104028    1.68737770556618
H          26.08458789003150    0.63202613285081   -1.85819433714230
H         -28.10608028291117    1.89326787969518   -1.05611385253772
H          27.79854496278533    1.80489032690032   -0.48466997847404
