   150
       -289.90148531
O         -23.46784762275575    2.96370841461351    3.19855674976108
S         -23.58405394030154    1.54943642677414    3.47273702068059
O         -22.97698013116560    1.01941286587470    4.67162533228278
C         -25.27586776539115    1.02666332249178    3.34360063977422
C         -26.31437172111846    1.37748151050600    4.17609424550998
C         -27.57325282878254    0.85168380795346    3.89599587455057
C         -27.75767941505615    0.00376794341407    2.81108735065221
C         -26.69803654192636   -0.34155862970306    1.98036414008361
C         -25.43434341277633    0.17607934744592    2.24705864764957
C         -24.18974905888139   -0.06039323598785    1.50957523741854
C         -23.99653613429074   -0.84478570267816    0.37653178643610
C         -22.72586153266771   -0.94402389231038   -0.17188668126572
C         -21.63004424756597   -0.27980692356746    0.38812364654492
C         -21.82081247126156    0.51386774473804    1.52833385831414
C         -23.08743003573402    0.60380920497320    2.05189024011243
H         -26.15672953036199    2.03847620194635    5.01888505587127
H         -28.74448356800078   -0.39702999491935    2.60787990907916
H         -26.85763629710323   -1.00583761063103    1.13881717947130
H         -24.82439052980566   -1.37834123070846   -0.07580224305527
H         -22.57734150601726   -1.57159699325133   -1.04379989890696
H         -20.99725812550268    1.05811350387070    1.97360535107604
O         -16.06483348137360    0.41332318415009    1.60814643675775
S         -16.36639550762662   -0.78831790022442    0.86737552647235
O         -16.27582725891222   -2.06534213245270    1.53690797477276
C         -17.92850842965627   -0.63628729197318    0.03457478561043
C         -19.16204712453534   -0.51674123928731    0.62609667893840
C         -20.28773132262658   -0.41257354976340   -0.20337921504395
C         -20.11558488611601   -0.43467577016779   -1.59108453730456
C         -18.85949537771693   -0.55043732829908   -2.16920268469653
C         -17.73935873594818   -0.65266508595664   -1.34959901668521
C         -16.33345101409988   -0.76464311779094   -1.74403420322834
C         -15.79654148752147   -0.80009565689161   -3.02784377899816
C         -14.42049140402848   -0.88471022226197   -3.18687212075969
C         -13.55567384968571   -0.92779802629460   -2.08912044746467
C         -14.09268597130679   -0.90365185077164   -0.79407940691795
C         -15.45688891541579   -0.82772337511616   -0.65821147435238
H         -19.26129964939900   -0.52209449234658    1.70435703843528
H         -20.98250362010928   -0.33572305694224   -2.23475046025590
H         -18.75833717328523   -0.55455691740941   -3.24824691437651
H         -16.44004022340662   -0.75442814154083   -3.89866472813932
H         -14.00600155133798   -0.89002091401575   -4.18895592596851
H         -13.45220336459653   -0.95934817371495    0.07722765710545
O          -8.62130492896779    0.15470534612604    0.64025150449832
S          -8.66810159340002    0.60651237897308   -0.73042665761150
O          -8.76228877438662    2.02369314564600   -0.99643700010164
C          -9.90922632346733   -0.27597761308404   -1.64296315494025
C         -11.26536381854935   -0.21702995032801   -1.43869746506793
C         -12.09562911873640   -0.97461917083750   -2.27681972387631
C         -11.51794891471413   -1.75745649287881   -3.28101175938836
C         -10.14300627266026   -1.80991440668757   -3.46509938512283
C          -9.31447815253823   -1.05855048733263   -2.63626910171848
C          -7.85225155978033   -0.96660469365236   -2.64989213192890
C          -6.94942932434789   -1.61258026483267   -3.49006920099178
C          -5.58840605097497   -1.39320681385805   -3.32525709745884
C          -5.09670643361111   -0.54096488371138   -2.33207737053901
C          -6.00288141991047    0.11690716766657   -1.48839004085971
C          -7.34401957026978   -0.11087753215243   -1.66966819753290
H         -11.68124136760217    0.41575039847201   -0.66480558819621
H         -12.15723528127551   -2.35649754528780   -3.92021921456457
H          -9.72517942790030   -2.43369071022058   -4.24685054831142
H          -7.29897154225274   -2.28601014618713   -4.26395329060420
H          -4.89021013007867   -1.91411959980260   -3.97127428836948
H          -5.65818433467637    0.80261361171213   -0.72463167381783
N          -0.89152557776795    0.15451286430113    1.74685077126172
C          -1.26999071739229    0.11655433027775    0.66076582694144
C          -1.76294211943677    0.04680594260315   -0.67496314215955
C          -3.12081857396228   -0.20115685861963   -0.86854548684457
C          -3.65096279601654   -0.32189519220819   -2.15198212566533
C          -2.78709202885195   -0.21424853137603   -3.24548744305685
C          -1.43730333708518    0.03153254083792   -3.05860412268564
C          -0.90183141810028    0.18142053951270   -1.77948104255646
H          -3.75976583735608   -0.31922310421672   -0.00119447752348
H          -3.17854714224226   -0.29576748926875   -4.25320975403354
H          -0.79003263598734    0.13701800995865   -3.92210295394529
O           4.25831921675934   -2.16821164145642   -2.50621589040964
S           4.21977305443289   -0.76161241069363   -2.83515544799427
O           4.32580555326385   -0.36939065363770   -4.22298848157392
C           2.81877465457104    0.02392246050065   -2.07514668599360
C           1.49307426550235   -0.24334187376461   -2.31865792639425
C           0.53112130010920    0.46817001796300   -1.58873457138566
C           0.94694761975645    1.44027132607212   -0.67375745066772
C           2.29009891777520    1.69687353483466   -0.44411220091440
C           3.24941698623782    0.97002046491023   -1.14223473341751
C           4.70530869882130    1.03872060624012   -1.01015438622701
C           5.45221250432633    1.84041403883795   -0.15219216389248
C           6.83335348111828    1.71731433577708   -0.14114801103004
C           7.49792613388855    0.81026868672535   -0.97344011790499
C           6.75024517410281    0.01493597657041   -1.85347040102592
C           5.38293082188753    0.14819373340851   -1.84602408955925
H           1.20050882818908   -1.00451991110197   -3.03115663799744
H           0.20237415097928    2.01282546996959   -0.13314047906724
H           2.58193285366038    2.45017694734686    0.27792524605198
H           4.96603259655894    2.55006422818752    0.50675003899643
H           7.41168760171866    2.35038098309061    0.52236353596476
H           7.23202768349153   -0.70773364136182   -2.50002770334689
O          12.01757167040541    1.97640393875412    2.38190062675095
S          12.01477385327256    0.65276545388730    1.80121855502313
O          11.74686403970922   -0.48122339011832    2.65636279891103
C          10.97863651113966    0.60822447670321    0.35994064103691
C           9.61318587393566    0.74801892698559    0.33282462062269
C           8.96277196594552    0.67605794947026   -0.90739380268032
C           9.72227840348011    0.46697325527524   -2.06291848324854
C          11.10266117672027    0.33191282158216   -2.01431672884130
C          11.75204560156010    0.40060154199479   -0.78491681751094
C          13.18388731131801    0.27531173374236   -0.50319919705265
C          14.22743880461698    0.06687529420279   -1.40065922217264
C          15.52679644051002   -0.02778868693578   -0.92256618077094
C          15.81823705176053    0.07576864808399    0.44147883996980
C          14.77043181646600    0.28847528622725    1.34855102876683
C          13.49281124249287    0.38341049058052    0.85508632773624
H           9.05461191501208    0.88665359555694    1.24993985149020
H           9.22391064791872    0.42733941116670   -3.02505579633428
H          11.66342291631291    0.17566905594412   -2.92841860231012
H          14.03389568098169   -0.02492427266235   -2.46300958370560
H          16.33288810846285   -0.20733656950999   -1.62518842756043
H          14.96214640328678    0.39646396012681    2.40872857019595
O          21.00717930599532    2.49974742460225   -0.02219024269067
S          21.02221863444148    1.05429777201231   -0.01237750493175
O          21.32318734857218    0.35400313647778   -1.24079982373238
C          19.53066582349126    0.41713943142308    0.71262438333666
C          18.25942418323997    0.53273248260058    0.20533796778832
C          17.20250644943594   -0.03404689072838    0.93135787892868
C          17.47892460515680   -0.69772910099890    2.13147612551392
C          18.77059112659125   -0.80609119121643    2.62515294228578
C          19.82190907755022   -0.23798225466657    1.91159049612744
C          21.24526158476693   -0.22022620726713    2.25452254232184
C          21.86990323192402   -0.76824784647620    3.37108192443312
C          23.24282676234367   -0.62964879527762    3.51707829833072
C          24.01829783016927    0.04957133163946    2.57247177533427
C          23.39351284169676    0.59926770723753    1.44439737224257
C          22.03427857961330    0.44929966393056    1.31618021637040
H          18.07918182438318    1.06888147287966   -0.71804550107272
H          16.66588441825954   -1.15576197271319    2.68331976440416
H          18.95200489546811   -1.32896848977416    3.55683803190660
H          21.29517714633141   -1.29434081622664    4.12447654137046
H          23.72131808153957   -1.04244524330602    4.39830541191384
H          23.96708181102994    1.11364291937463    0.68352258798037
N          28.99311328155066   -2.67938741268116    4.36614037301212
C          28.37703726515445   -1.80302921642829    3.94679620138743
C          27.61259898545699   -0.71723017626124    3.42897891647065
C          26.23347999453596   -0.85654642021676    3.26484814342796
C          25.47440409502611    0.19486863702963    2.75414781987034
C          26.11471857765800    1.38974045777022    2.41333476004398
C          27.48420789993775    1.52894791248289    2.57983883713826
C          28.23982500585189    0.48298402460504    3.08416350488031
H          25.76154922738392   -1.79886163849811    3.51826204049488
H          25.53362233391506    2.22250801815379    2.03399843009569
H          27.96549170596187    2.46323823428672    2.31443821178781
H         -28.41350842511784    1.10716571926274    4.53089662733291
H          29.31036824837489    0.58796191643527    3.21296519620648
