   144
       -282.55144740
O         -23.29185574520134   -5.01011722006670   -0.94579903548886
S         -23.67968841389311   -3.88350094229240   -1.76392054975815
O         -23.59672342832375   -4.00878478554752   -3.20176577705616
C         -25.27422948322864   -3.27475120723106   -1.27610740836967
C         -26.47945936298543   -3.92838110462515   -1.39757640159972
C         -27.62000381492852   -3.27090448365149   -0.94325001852180
C         -27.52732072775121   -1.99999961534653   -0.38984626585335
C         -26.30230547811430   -1.35305183249055   -0.27551054051101
C         -25.15361809064175   -1.99697168017420   -0.72453973415790
C         -23.77333407581374   -1.50358909318476   -0.69550372048140
C         -23.30131550071951   -0.28518384132870   -0.21653372814222
C         -21.94173380731969   -0.01330839198086   -0.27232616716540
C         -21.02877984928168   -0.93201402070502   -0.80043579552538
C         -21.50161610530543   -2.15866085470509   -1.28856393479231
C         -22.85017058983898   -2.40884856746404   -1.22287465038993
H         -26.53655523425830   -4.91907628452465   -1.83043697707389
H         -28.42521494462209   -1.50304684992449   -0.04009298763855
H         -26.24712354920033   -0.36163185954346    0.15867697344647
H         -23.98275869996635    0.44897609963573    0.19709618249059
H         -21.58299946154256    0.94425773571418    0.08806527557694
H         -20.82195171335095   -2.90242250447992   -1.68515934376584
O         -16.94917083728723    2.51409069090632    1.42680827772317
S         -16.64049110698951    1.10215667736342    1.39852245149110
O         -16.64461986715912    0.36591771795795    2.64272545524258
C         -17.62968863374859    0.27608860779576    0.17561469434226
C         -18.98487946121628    0.05914594207104    0.22738906635768
C         -19.58702703888724   -0.63510286174115   -0.83199071625710
C         -18.79496532677090   -1.06074373077915   -1.90386735108357
C         -17.42752629431169   -0.83124775172091   -1.93768163203598
C         -16.82322960060650   -0.16087667349106   -0.87810773289444
C         -15.40288062584130    0.13601790973897   -0.68619306278315
C         -14.33424627380029   -0.19551099780765   -1.51391363061196
C         -13.04428737583464    0.12551344068745   -1.11839024680141
C         -12.78428394497376    0.77906166438231    0.09159336835212
C         -13.86155622997139    1.13626790615173    0.91619229967659
C         -15.13090233262290    0.80579982661546    0.50918595280821
H         -19.56491588647410    0.39065916727728    1.07949746976625
H         -19.26107828301546   -1.57434258727498   -2.73713943475472
H         -16.84074924110277   -1.17725707941054   -2.78048033875055
H         -14.49990781013146   -0.71406040135556   -2.45091709103596
H         -12.21560696748388   -0.16727281016485   -1.75304652049714
H         -13.70281971428155    1.66599536563482    1.84710024914025
O          -7.74586017768351    3.18034059857143   -1.53883813008176
S          -7.68922659407790    1.84117678437859   -0.99987330052554
O          -7.44868068354073    0.73652740870392   -1.90033123278869
C          -9.11741823461945    1.51252193707961    0.00617258336501
C         -10.40761445602871    1.34333900589639   -0.43298531502180
C         -11.39870454949010    1.04280818889744    0.51338948303861
C         -11.04151179278985    0.95118794930204    1.86357299123699
C          -9.73348509366581    1.12997370361463    2.28789860053455
C          -8.74398239059817    1.40411355412305    1.34790813669680
C          -7.30571605477783    1.55677700049840    1.56563605733634
C          -6.60508972233779    1.47627889802646    2.76546868478869
C          -5.22197976761014    1.57731273291811    2.75516635628683
C          -4.50475825898682    1.75795808383005    1.56619106719242
C          -5.21449754130337    1.87301306524510    0.35775997719886
C          -6.58157561175075    1.77122432875599    0.38870599043558
H         -10.64919811369038    1.44726737236995   -1.48333711816914
H         -11.79918452805155    0.70260255055516    2.59802130141470
H          -9.48818956728909    1.03788658349793    3.33944247870207
H          -7.12841854280513    1.32389209048622    3.70225433639957
H          -4.69599496698456    1.50315143792888    3.69983971569813
H          -4.67893068178185    2.02322310661105   -0.57184370310860
C          -3.03836076807636    1.78648963170476    1.52477805652914
C          -2.21815152572151    1.56810263417218    2.63578703568700
N          -0.90192114451464    1.52572156687987    2.53949216027314
C          -0.34439829439810    1.71129223596409    1.33460431567011
C          -1.16268227799192    1.96314222512404    0.22902680244769
N          -2.47977356309693    1.99391736299750    0.32428948028212
H          -2.62870690457343    1.41049171753247    3.62786886679253
H          -0.74947059370220    2.12643320327727   -0.76078742093587
O           4.48001136438899    3.40610979902742   -1.44454587723256
S           4.35702873477698    1.99071603007017   -1.18116932593654
O           4.08828342104350    1.09801280732406   -2.28619056078627
C           3.21410144516788    1.69763929215594    0.14851129896038
C           1.85480941649699    1.89708417716160    0.12156358295443
C           1.11633230372626    1.58617161238046    1.27396343493510
C           1.79498708530719    1.10895116066465    2.40469009303705
C           3.16514636055919    0.91378955546217    2.41186587153045
C           3.89640757859332    1.20080240641824    1.26198181451503
C           5.33173454799099    1.02968962961859    1.03991764077157
C           6.28401955695193    0.52933879728526    1.92318365956039
C           7.60009323728583    0.40948853123300    1.50421407793628
C           8.00171786007578    0.78204085999610    0.21610418212248
C           7.04616340103572    1.29747645504113   -0.67228904601352
C           5.74664247225824    1.40488574624885   -0.24005120917340
H           1.38050527528482    2.28481783928325   -0.77102165864163
H           1.21645332932628    0.87897570076527    3.29283204724773
H           3.65621384676555    0.53464321887907    3.30037171923920
H           6.00457265831401    0.22378853017095    2.92461561403325
H           8.32961197029695   -0.00899681183727    2.18821115682316
H           7.32322152139801    1.61605298701039   -1.66939563257010
O          13.45355520735043    2.03774617679846    1.68163674318125
S          13.19937228232777    0.66921492043453    1.29655734038370
O          13.18760295178445   -0.35242013036288    2.31921272320761
C          11.73113980062994    0.55695357154972    0.30331358519555
C          10.44289240141240    0.77956601680732    0.72265659219658
C           9.40227511972266    0.60695063854389   -0.20213583563611
C           9.71651046704813    0.23498588092413   -1.51406445369883
C          11.02570640805486    0.01954920847437   -1.91948920544654
C          12.05861920330489    0.17277418013627   -0.99908697173398
C          13.49363535576840   -0.03816925498940   -1.19904522719885
C          14.15168687005472   -0.43968258786199   -2.35787804460165
C          15.52688344018657   -0.62010532632948   -2.32926605837850
C          16.27381054188903   -0.40347936109711   -1.16666627801126
C          15.61735828480959    0.01904763566472   -0.00180395555024
C          14.25479562690470    0.18585486007283   -0.04879463632543
H          10.24270541737392    1.09229484614557    1.73973627090680
H           8.91626891126848    0.08433500479978   -2.22981688906837
H          11.23362612412168   -0.27676086324589   -2.94100839943189
H          13.60099091578643   -0.61535781810022   -3.27461175427504
H          16.03576115338711   -0.92296525581462   -3.23763897627259
H          16.16364250385929    0.18302665416462    0.91864681194360
O          21.36345648519684    2.16241745506605   -0.25691549950951
S          21.20465798355612    0.86998236370375    0.37016220742988
O          21.04353086277758    0.80689798331744    1.80458845196840
C          19.92667074223686   -0.05946068758642   -0.44376014869933
C          18.58111662657162    0.21762471877463   -0.44201539448311
C          17.72782798389823   -0.63800821536602   -1.15328047211844
C          18.27197584818487   -1.73151612708376   -1.83519325195725
C          19.63288249854970   -1.99853921416505   -1.81841055613754
C          20.48304851861572   -1.15426192367588   -1.11012838878926
C          21.93347487926962   -1.26076168552640   -0.94820794184732
C          22.78987577587750   -2.23148009379880   -1.46173629786151
C          24.14205595930772   -2.15947203438322   -1.17151287745108
C          24.67919268251844   -1.13909622631769   -0.37498929291629
C          23.81982022470865   -0.15423537611490    0.13416477701424
C          22.48170564253861   -0.24303537479580   -0.16407499433990
H          18.19469706131169    1.08371564748336    0.08063558165046
H          17.61123913534344   -2.40441084770363   -2.37044358585894
H          20.02217589631902   -2.86050307802841   -2.34752839995918
H          22.40792286595113   -3.03714789339534   -2.07782972385492
H          24.81588491021612   -2.91294451130738   -1.56503679137849
H          24.18586730619559    0.66337166132383    0.74181401337440
C          26.12328573252037   -1.14139726109209   -0.10029024764969
C          26.73940982252563   -0.30958359072960    0.83734969195783
N          28.04601197055266   -0.34686859473319    1.05953368714805
C          28.75980472998114   -1.21788526916808    0.35309374211133
C          28.15818753355786   -2.05726899957111   -0.57312610805891
N          26.85303175614082   -2.02069722322315   -0.79942636466218
H          26.17140335566236    0.39840547460001    1.43151219553644
H          28.73600667714480   -2.77463731809447   -1.14742354018518
H         -28.58555346362008   -3.75651255959799   -1.02207861069986
H          29.82890895368783   -1.24448419844927    0.53516269406131
