   124
       -238.45887971
N         -20.69827759275747    4.11408522410547    1.94290922348943
C         -21.21149221288497    3.15151393157530    1.57509617710360
C         -21.87122376212560    1.96907181573613    1.13308805712646
C         -23.26409694571077    1.90297736603410    1.22962182156715
C         -23.93872831947948    0.75774504760178    0.84275263718945
C         -23.22769591614455   -0.33416735565983    0.36076547631479
C         -21.84602262884518   -0.27936552984696    0.26699642616844
C         -21.14674407116409    0.86677762518733    0.64492155716952
H         -23.80868884513863    2.75724415626478    1.61460338525839
H         -23.75203813417171   -1.23247984747319    0.05601750215300
H         -21.29909689932366   -1.13035476037230   -0.12318527076430
O         -16.54168756937882   -2.57261984410809    0.48144533200943
S         -16.41257999275619   -1.41864638610983    1.34259027885034
O         -16.43170788977394   -1.61550323508309    2.77461492848082
C         -17.56410162603856   -0.15393139181614    0.86553796195787
C         -18.93238581832554   -0.21106774885070    0.96850088523538
C         -19.67605335168665    0.89753345459109    0.54081133053666
C         -19.00735349798120    2.00653972171722    0.01512720175599
C         -17.62375481560011    2.04484290759266   -0.08063861561223
C         -16.88040807938312    0.95213009985512    0.35484671937374
C         -15.42548844918000    0.78970094497011    0.35961902239551
C         -14.45492711959477    1.69353472022440   -0.06268614817550
C         -13.11536726455220    1.34706356300282    0.03691698342135
C         -12.71184727163435    0.11080979368662    0.55235328764915
C         -13.68699442582942   -0.80394881884455    0.97495097434209
C         -15.00694194221740   -0.44187718697703    0.86866515386577
H         -19.42111633073383   -1.08067044166035    1.38980500888151
H         -19.58177326704767    2.85469260443873   -0.33842740173219
H         -17.13365181684766    2.91963163607492   -0.49151517904439
H         -14.73582041717648    2.66159613854482   -0.46054760568296
H         -12.36340057594721    2.06375031648115   -0.27355571714428
H         -13.41128197757393   -1.77857348156650    1.35768067666299
O          -7.48508645471045    1.65801969052488   -1.28440402496449
S          -7.72871617914768    0.23282804534520   -1.29255357084181
O          -7.89634295498928   -0.43611205651581   -2.56237759685531
C          -9.05933437639311   -0.17121023917143   -0.18693202276995
C         -10.37984205918416    0.17733917255391   -0.33051519419922
C         -11.28481943404658   -0.23244612446017    0.65912420261958
C         -10.81410572987010   -0.97217872747973    1.74954494381364
C          -9.47660499360405   -1.31499631389945    1.87589777729893
C          -8.57600976165338   -0.91293913530166    0.89378078131688
C          -7.13650783874146   -1.16369835439353    0.83136310928205
C          -6.34555139373834   -1.87013745647662    1.73413653925305
C          -4.98709441421308   -1.98543318281748    1.49303906261232
C          -4.38157015009496   -1.40986501732138    0.36742518992459
C          -5.17828537209141   -0.70887717453866   -0.55009411701109
C          -6.52348790501871   -0.60647112841745   -0.29358591907962
H         -10.71274920808079    0.73550074705625   -1.19658452337775
H         -11.50771062141055   -1.26989130973382    2.52773137182618
H          -9.14154199046606   -1.88592711042673    2.73384262545627
H          -6.78259321450454   -2.32258953117195    2.61657083989801
H          -4.36157803074652   -2.53027198341412    2.19185529779279
H          -4.76013061493903   -0.26442761411699   -1.44417909281078
C          -2.93166457381232   -1.54748252358437    0.19669142353978
C          -2.17702369197510   -0.78673985969998   -0.70076274077726
N          -0.86468030992609   -0.90782956337809   -0.79272588296087
C          -0.25553957157330   -1.79921666987520    0.00040746382974
C          -1.01027630882811   -2.56270377093800    0.89490509706824
N          -2.32151203239742   -2.43595007694923    0.99333572858060
H          -2.63851357272202   -0.04798847695481   -1.34774550494557
H          -0.54439787453882   -3.28023509643246    1.56270551842018
N           4.60303683839843   -4.86249749739772    1.48021454102879
C           4.05624266096313   -3.95914520697560    1.02224245053269
C           3.34875834139189   -2.86028144042317    0.45389304806949
C           1.95410511537176   -2.88934249874386    0.47966424879942
C           1.20779181145731   -1.85673897881070   -0.08595345078996
C           1.88967956131825   -0.81631761428999   -0.73008190828612
C           3.26964259715490   -0.78294171359980   -0.75831651676654
C           4.02768357143555   -1.78410280350627   -0.14678204636954
H           1.46518539176882   -3.73640289877719    0.94634117043104
H           1.31532437877375   -0.02026598969072   -1.19057560656358
H           3.77457266336042    0.05231519887179   -1.23026380199628
O           8.79424014625349   -1.39095355165307   -3.43793355099644
S           8.65940116239796   -0.42825335581933   -2.36896725935223
O           8.33860026509208    0.94167857167078   -2.70301307424294
C           7.55636701187704   -1.03258655492544   -1.11321802635085
C           6.19823309912457   -1.20541305573823   -1.22512806348218
C           5.49441564408178   -1.66570493095166   -0.10280928234109
C           6.19457933647945   -1.94369717742346    1.07555051258748
C           7.56598309014993   -1.76257880725609    1.16840858402280
C           8.26527236135975   -1.28846826081132    0.06281664523269
C           9.69043385098534   -0.97339471627092   -0.03518231831915
C          10.66077212184091   -1.07299865710392    0.95726060454974
C          11.95734156110335   -0.66903670705197    0.67923459677923
C          12.32061116660202   -0.16592620651389   -0.57536532967890
C          11.34844856435530   -0.08054577289072   -1.58278626730918
C          10.06860834853162   -0.48298880600984   -1.28714975217808
H           5.68769460226723   -1.00037527915654   -2.15777566851316
H           5.65003647044609   -2.28275378897970    1.94894464838371
H           8.07849023511351   -1.97526315089626    2.09912538028086
H          10.40843612555045   -1.44697261471264    1.94252052876538
H          12.70036041667849   -0.71888529278318    1.46699487834029
H          11.59732682413350    0.28247241645039   -2.57211526845522
O          17.88419749618026   -1.74356969399000   -0.23016531087611
S          17.54518198974180   -0.45161386573626    0.32190444903548
O          17.51783800959827   -0.29553145330655    1.75921069746394
C          16.03779172034731    0.16108883545826   -0.39011270318106
C          14.77741778405825   -0.34685878504034   -0.19513523162629
C          13.69661933879562    0.29989967626227   -0.81229153100058
C          13.94478107911654    1.41686683863860   -1.61797408183225
C          15.22699245172018    1.91153571846194   -1.80667441869001
C          16.29922470528505    1.28571033702575   -1.17667446978810
C          17.71321913151876    1.66308171508437   -1.19895857046783
C          18.31303294775602    2.73248512991333   -1.85962901911144
C          19.67660851620412    2.93262109969412   -1.72152971291930
C          20.47735238253613    2.09170624513596   -0.93629483489511
C          19.87621824934151    1.01025591601745   -0.27563064233640
C          18.52329782628939    0.82744536647558   -0.42596164090457
H          14.62856322944775   -1.23047107449111    0.41266723421681
H          13.11177216663637    1.92940389256479   -2.08581583769870
H          15.38400248186071    2.78575191546050   -2.42762629751297
H          17.72359901258051    3.40539438845485   -2.47151274092238
H          20.14990208827851    3.76659848210111   -2.22862824593380
H          20.44578663969255    0.33423588272353    0.34900007911121
C          21.91436290071332    2.37939789425190   -0.82209304343819
C          22.82800496993301    1.53951740388196   -0.18062183198938
N          24.11611424076389    1.83945004462707   -0.08896284691734
C          24.51589081041842    2.98136617339361   -0.64008870968618
C          23.62075232637270    3.81872060760651   -1.28968327132791
N          22.33206431848080    3.52325567808590   -1.38038051884576
H          22.52170293718721    0.60019456121354    0.26742283803234
H          23.94496668811193    4.74888841813873   -1.74572399909682
H         -25.01883351131295    0.71455925650049    0.91895877913185
H          25.56961919698517    3.22667634028359   -0.56076806450795
