   116
       -194.81468272
N         -16.20608454890776    1.20142881272267    3.25936078523637
C         -16.68100268939688    0.79572806554614    2.29238694409177
C         -17.29244981606721    0.31600495211821    1.09893991982290
C         -18.67793309964397    0.43555413129096    0.95641445100704
C         -19.29962266504981    0.01244235037723   -0.20581490156960
C         -18.54247410661732   -0.52649712589392   -1.23861266188912
C         -17.16754668534057   -0.64454427064627   -1.10664577805405
C         -16.52240520098265   -0.23354966936848    0.05895394518658
H         -19.25856078353803    0.86524880670196    1.76438184171303
H         -19.02638605351694   -0.85877466029599   -2.14990913875742
H         -16.58431791609266   -1.07999238899740   -1.91045711408796
N         -11.38022252088849    0.56483684562264   -2.76382210394731
C         -12.02448818347551    0.26103743074614   -1.86006272644634
C         -12.84058934718740   -0.12079239676587   -0.75559486782980
C         -14.22593702315106    0.01168615618574   -0.86005916255804
C         -15.05866264455641   -0.37933061714157    0.18522921158481
C         -14.48487236951859   -0.92690440212041    1.33514362280910
C         -13.11199696915797   -1.07066963634123    1.43793401853119
C         -12.26641820430383   -0.66047163341504    0.40888570093219
H         -14.64959893058274    0.43953369619382   -1.76150661377943
H         -15.11905813973351   -1.25798276393595    2.14905740059513
H         -12.68254302307863   -1.49567884768127    2.33825132675249
C         -10.80572486676016   -0.85034199169174    0.52924113122486
C         -10.32686466980550   -2.14335701471989    0.73993484933246
C          -8.97093663457720   -2.40224535282876    0.81174154329058
C          -8.04140278481772   -1.36585863955207    0.67261422896928
C          -6.63406076270330   -1.60124514178928    0.73191462287978
C          -5.74433303646719   -0.58874564885365    0.58595986329545
C          -6.17567774968103    0.75843365550136    0.37057791663807
C          -5.26999513142506    1.82616752668950    0.21495419276903
C          -5.74781201913731    3.13069678224156    0.09788648391718
C          -7.10462391413649    3.39769922995050    0.09388912285774
C          -8.03548746255946    2.35925149978166    0.20924801299512
C          -9.44324832087506    2.60128373986319    0.20440857523159
C         -10.33316753165714    1.58403980081673    0.30967415353675
C          -9.90175071698439    0.22507056839809    0.42906142702392
C          -8.50600562421735   -0.03801328535021    0.48562161604277
C          -7.57157348940284    1.02616880372647    0.35554230087052
H         -11.03610938119633   -2.95981733786768    0.82385588013693
H          -8.62105735840566   -3.41697512620811    0.96677465958659
H          -6.28924512433339   -2.61574361017049    0.90213997548683
H          -4.68088514255529   -0.79015714861997    0.65045517976215
H          -5.03883196841613    3.94384874486264   -0.01515722780584
H          -7.45467653469781    4.41896550074727   -0.00882824344538
H          -9.78768273507492    3.62632668861860    0.11797543736888
H         -11.39668547186067    1.79360970713084    0.31835320261443
N          -0.07838567237281    3.27843178513850    2.66000084742752
C          -0.73908229703286    2.70147837406300    1.91458990763659
C          -1.57711821809258    2.00887469823389    0.99429263237677
C          -2.95424670643126    2.23596051489345    1.03976655865990
C          -3.81178683439077    1.59033433280543    0.15440302648231
C          -3.26687489791073    0.73779089203374   -0.80968718231600
C          -1.90109555222870    0.52234211796891   -0.86951228265568
C          -1.03486247539862    1.13641820661559    0.03457021774773
H          -3.35535250575785    2.90931964273527    1.78857993004923
H          -3.91984400479049    0.25232749373862   -1.52593027267395
H          -1.49811501764687   -0.15323968798671   -1.61598400923182
N           3.52707682905987    0.52563437803538   -3.66364506159275
C           3.05158754048090    0.54085433930263   -2.61551382053481
C           2.43183789387434    0.55126102404271   -1.33278902731238
C           1.07180437103993    0.85408708323700   -1.25228011107227
C           0.41127695827423    0.85164010991101   -0.02638461308345
C           1.13551462837598    0.53735764995822    1.12625382544447
C           2.48051447190243    0.22057517357284    1.04912555812072
C           3.15313032758084    0.22082710636404   -0.17221947650484
H           0.53345309739499    1.10505588481895   -2.15912560789541
H           0.63730021770238    0.52025377977056    2.08835968527000
H           3.02472545012009   -0.02083901344103    1.95533555037327
N           7.10103918723232   -3.79332853601484    1.63317792082038
C           6.77797014115138   -2.85041475198712    1.05789473929935
C           6.36096191857975   -1.67942335394478    0.36153628202405
C           5.02401870177106   -1.28762519917066    0.43403017815005
C           4.57957774680908   -0.15059083151448   -0.23588462550427
C           5.50081277402972    0.60704139056013   -0.96294464845069
C           6.83197362260780    0.23059276553756   -1.02318764388327
C           7.28503321137829   -0.91648932560692   -0.37279978421379
H           4.32471699409420   -1.89479704919816    0.99752389800874
H           5.17481399677959    1.50273765415355   -1.47832948560684
H           7.52971114552605    0.82122617631603   -1.60602384250147
C           8.69138735410032   -1.35514072317873   -0.48958816651765
C           8.95296289591988   -2.61390799964274   -1.03051121704835
C          10.24798832867402   -3.06542033227541   -1.19958931773559
C          11.33435611020223   -2.26776326708285   -0.82352503337216
C          12.68370101683219   -2.70962485490759   -0.97613614343815
C          13.72718769547400   -1.92766463777489   -0.60479682267149
C          13.52300184333172   -0.62633113668276   -0.04624086353045
C          14.59075240658379    0.20203622921508    0.35151278658421
C          14.32705252221363    1.42662841398792    0.96419024068665
C          13.03090002976222    1.86500678183339    1.16268537471402
C          11.94504284816294    1.08289594570924    0.75411088974398
C          10.59439361487494    1.50690738914336    0.94480105223853
C           9.55146183385908    0.73705736569057    0.54738506115122
C           9.75821011826773   -0.53190911206775   -0.08027477591017
C          11.09268336814465   -0.99098591245924   -0.25330924805107
C          12.18791255055375   -0.17791561787836    0.14948111666851
H           8.12166798545168   -3.23861130141867   -1.33806865613412
H          10.42779546706866   -4.04471246446273   -1.62915027737568
H          12.85691827691481   -3.69660411841514   -1.39193327148442
H          14.74196048902954   -2.29372661088630   -0.71275061026242
H          15.15872135826950    2.05241519809488    1.26986435103010
H          12.84999306132355    2.82505312069155    1.63357692388569
H          10.41924281297252    2.46385277104060    1.42509541732822
H           8.53461048509382    1.07251862893605    0.71820616108339
N          19.84242846194805   -0.65441828665858    3.00693980326480
C          19.11904907358425   -0.61708402988976    2.11290705952667
C          18.22350784933917   -0.57262302595899    1.00581252093102
C          16.88636930793169   -0.22419657603330    1.20510862995551
C          16.00045128991091   -0.18822050939726    0.13119812249852
C          16.47197531502567   -0.48728596274811   -1.14934323100722
C          17.80208082299694   -0.82856249746914   -1.34841065670453
C          18.68138929342377   -0.87786795074917   -0.27909154103752
H          16.53428544433406    0.00281861595195    2.20478542538231
H          15.79678999442325   -0.43113885205479   -1.99564269163278
H          18.15530124727726   -1.05574885644189   -2.34798251812437
H         -20.37458007852412    0.10430297525998   -0.30860951561346
H          19.71986981409239   -1.14687840968219   -0.43079864583355
