   156
       -283.00331118
O          22.80362825412397   -2.13557221192088    3.54578840422722
S          23.10866386097476   -2.24466378200260    2.13685161560510
O          22.87024210773049   -3.50570092159312    1.47028197723675
C          24.75273299365032   -1.66268513143945    1.80285956636161
C          25.93288062300222   -2.23756034904845    2.21674192038904
C          27.12139666101493   -1.61750677863706    1.83900650606779
C          27.09929005954502   -0.45909115135633    1.07242425332826
C          25.89865580738892    0.10917097823340    0.66295272245640
C          24.70301935899179   -0.49968113597178    1.03076174395350
C          23.33845193972597   -0.07590230701404    0.70360301298320
C          22.93381030570807    1.02365231322879   -0.04704485756883
C          21.57933101592893    1.24487572910614   -0.25144513433433
C          20.60593750150794    0.39146749668156    0.27754157808351
C          21.01006452830751   -0.71493642395709    1.03792773026860
C          22.35504651815400   -0.91672894673889    1.22867332522549
H          25.93548564127494   -3.14042216095066    2.81424079511357
H          28.03388660289335    0.01068012953163    0.78718168696536
H          25.89816540561706    1.01312789879275    0.06508677419807
H          23.66336573207873    1.70069065376066   -0.47597924458287
H          21.27122647428184    2.09095432169571   -0.85564645358816
H          20.28293837989613   -1.38505461574268    1.47918760363136
N          16.46234797194787    4.59951787934670   -0.22083348977144
C          16.83280418946090    3.51001603815689   -0.22933750626819
C          17.31228424833222    2.16816811823654   -0.23252302077021
C          18.66725981559744    1.93521943323492    0.00611305055056
C          19.17433154544981    0.63792738421877    0.03373526088044
C          18.29624513949130   -0.42923948366763   -0.18178637456369
C          16.95199386545799   -0.20262109782650   -0.41581855527302
C          16.43251486286185    1.09244133037753   -0.44289640999527
H          19.31935922856358    2.78090150231368    0.19203934137248
H          18.67412985110391   -1.44517219138796   -0.19131000139353
H          16.29253113110030   -1.04163060500318   -0.60741792371757
C          15.00386515502334    1.31817149919057   -0.73620959173082
C          14.65765861279409    2.14065838907330   -1.80869276628123
C          13.33772753091242    2.32058871898765   -2.17587965146718
C          12.31089583487996    1.66909161561173   -1.48325153122197
C          10.93925531185880    1.81612923977826   -1.85124720445358
C           9.95749659353714    1.15624381750255   -1.18803146159539
C          10.25110932174343    0.29374005217146   -0.08503767519704
C           9.25089203272642   -0.41338422761094    0.61275341641206
C           9.58644011271532   -1.14424262585571    1.75330234265799
C          10.89492119812866   -1.23209309498113    2.18883826376698
C          11.92311762580992   -0.59284550581134    1.48670116063264
C          13.28838396888945   -0.68780840911284    1.89368492945488
C          14.27670029329026   -0.08213854377233    1.18993531097539
C          13.99374778853025    0.68701319820543    0.01735315243037
C          12.63620953324250    0.84891958998350   -0.37203410144281
C          11.60213185649719    0.18540839622893    0.34425070648331
H          15.44306925043682    2.62750066306191   -2.37603590009790
H          13.09244748500102    2.95978559752417   -3.01677103256841
H          10.69699229120207    2.47429270080130   -2.67893257629528
H           8.92209171633266    1.29696726434986   -1.47718581722101
H           8.80618091143031   -1.67503682731315    2.28781967030279
H          11.13372601159919   -1.81378981961005    3.07223949296600
H          13.52022100403991   -1.25919924220317    2.78619530193965
H          15.30461495824777   -0.15851747579880    1.52607619515182
O           3.99163838833924    1.57057685037381    1.85827268156906
S           4.04441227205806    0.16986752676302    1.50540753493624
O           3.84321350037017   -0.81770619092144    2.54079570949558
C           5.52001060074481   -0.18541820051169    0.58213279022545
C           6.81243895876863   -0.12901807422023    1.04492112947422
C           7.84916903793640   -0.43210244203734    0.15212653857748
C           7.53498145961663   -0.79988022775327   -1.16044232928787
C           6.22280013556412   -0.85645404312051   -1.60735057336904
C           5.19112710531110   -0.53955475566197   -0.72854563656753
C           3.75186550010293   -0.51900013927101   -0.99457779175648
C           3.09515311972215   -0.79817301974340   -2.18950178304377
C           1.71346665798338   -0.69020159192187   -2.24496480721792
C           0.96009299234198   -0.31573083360766   -1.12773847021125
C           1.61561862476823   -0.05155318998928    0.08304273475913
C           2.98521007320396   -0.15504067310317    0.11511362126360
H           7.02786825037708    0.16047034333622    2.06586830211815
H           8.33676611090439   -1.06918896704321   -1.83895895475117
H           6.00940494961854   -1.14839182411895   -2.62910225903626
H           3.65157096537896   -1.09275873124723   -3.07165882049977
H           1.20471382057327   -0.91746203339275   -3.17527858015089
H           1.06133458315418    0.25358565997443    0.96185898933140
O          -4.05841990124386   -2.33146466963920    0.91381239495518
S          -3.95188937860984   -0.89170317582222    0.84075401320439
O          -3.82073046450782   -0.13945135100977    2.06705088257699
C          -2.69113524282621   -0.42443412317338   -0.32260708642798
C          -1.33579255544302   -0.60412633221848   -0.18546090796423
C          -0.50256861511153   -0.17231174392036   -1.22710203567285
C          -1.07382226172864    0.41661034847228   -2.35985108358166
C          -2.44374635366489    0.59878578217423   -2.47459623648902
C          -3.27409881336236    0.17731060187269   -1.44051100542453
C          -4.72957572163404    0.29907830165631   -1.34669956291301
C          -5.60286213610558    0.87961574898596   -2.26158706038274
C          -6.95627857276763    0.93579470749676   -1.96360942670520
C          -7.46825584723699    0.41690668955984   -0.77040224682666
C          -6.59517947710720   -0.18641674648335    0.14490394804690
C          -5.25685481698508   -0.22460506148661   -0.16406923735732
H          -0.92490535804787   -1.08059860505982    0.69587430617043
H          -0.42824695409735    0.76510152384358   -3.15836582854673
H          -2.85634072824057    1.07080565331164   -3.35860208046115
H          -5.23510053871766    1.29052582036029   -3.19455173908390
H          -7.63545988697770    1.38299073480078   -2.68093847121476
H          -6.96045766217620   -0.58586193159406    1.08280806088302
N         -12.14233892816290    4.03511146811698   -1.05764138640312
C         -11.61488683309233    3.05064553788494   -0.78069588427209
C         -10.94569977450879    1.83371667596992   -0.46078037398831
C          -9.58893696698911    1.70706709812718   -0.75559140277227
C          -8.90669367182885    0.52697757709126   -0.46839528481054
C          -9.60772354050575   -0.53165081365268    0.11560047186053
C         -10.95918177976693   -0.41469147415476    0.39560824386792
C         -11.65024324475766    0.76360139936925    0.11710750589569
H          -9.06298277473032    2.54887739535348   -1.19112297564768
H          -9.09374509473587   -1.46022873206466    0.33663218436384
H         -11.48554628853294   -1.24290246793186    0.85657054827240
C         -13.08223174464165    0.92079125445319    0.44885778520704
C         -13.45097652191187    1.93316148875371    1.33457846332047
C         -14.77327608769293    2.13262821999855    1.68234641165868
C         -15.78015883026262    1.32534958579123    1.14174878327239
C         -17.15819723977193    1.52821373956970    1.45479103078368
C         -18.12516328444995    0.74405056510101    0.91798019754629
C         -17.80808368414401   -0.32661792164412    0.02345878685244
C         -18.79509516329519   -1.15584637666063   -0.54711512467109
C         -18.43071217247223   -2.12435804611696   -1.48292476892237
C         -17.10931559312338   -2.31364780482631   -1.84116275460858
C         -16.09846017471492   -1.52947169539518   -1.27403306455434
C         -14.72496132652659   -1.69727826763627   -1.62790717923954
C         -13.75622561174279   -0.92336038766898   -1.07933975081935
C         -14.06740084901363    0.09093684471281   -0.11957560153676
C         -15.43011927972088    0.29434175752349    0.23188416543239
C         -16.44634851560578   -0.52257294488787   -0.33635137157839
H         -12.68125751002367    2.56496427725228    1.76377114354097
H         -15.03728566276814    2.92350423184855    2.37554492123474
H         -17.41828751873946    2.33881070914670    2.12724801872925
H         -19.16608664289636    0.93798429192357    1.15027336892162
H         -19.20005078607224   -2.75272126263217   -1.91834114198684
H         -16.84875490643856   -3.07824997801761   -2.56466133928649
H         -14.47258317147394   -2.45829266132569   -2.35880830005564
H         -12.72210973789096   -1.05655759275980   -1.37697442757847
O         -23.80135816096614    0.77599489672588   -2.57012401239390
S         -23.89028947508169   -0.49733928306562   -1.89060503293143
O         -24.12522062263046   -1.68859278095901   -2.67653530700705
C         -22.49707246984827   -0.73244058952164   -0.81362006178475
C         -21.18143018680244   -0.86199963026686   -1.18807645628170
C         -20.21975318062878   -1.02477552697803   -0.18215917328242
C         -20.63095912403549   -1.08384437270068    1.15296145834031
C         -21.96572113312441   -0.95382398328707    1.51058266603048
C         -22.92061460427260   -0.76263003176763    0.51679776193086
C         -24.36589023175517   -0.57418303817254    0.67377970267610
C         -25.09943017298466   -0.53222609371717    1.85520151167766
C         -26.47255422399635   -0.32610228327164    1.79028375673982
C         -27.11780156985498   -0.16230545156770    0.57087892672195
C         -26.39728763027682   -0.20266610631316   -0.62033366534189
C         -25.03867878229604   -0.40798973991217   -0.53884556776033
H         -20.89033232389052   -0.81665854298796   -2.23010764188612
H         -19.89005075589747   -1.25276839661963    1.92641658864725
H         -22.25382667148390   -1.00102563807873    2.55435964980815
H         -24.61089555352876   -0.65577630369277    2.81474945187097
H         -27.04835942210393   -0.29107666837480    2.70837592388829
H         -26.88678820519677   -0.07531380117604   -1.57762872318688
H          28.06921312824027   -2.04366132531067    2.14611621844765
H         -28.18903155496559   -0.00069549760770    0.54438197369597
