   162
       -261.84935410
C          23.77040534879658   -2.20110176163341    1.48033906936237
C          23.22316955589198   -3.47491060184702    1.46780723800385
C          21.91224225692892   -3.67734023078171    1.06508023913720
C          21.11708267346623   -2.59877326504242    0.66167241769757
C          19.75832413094496   -2.76623636284010    0.24954635783086
C          19.00544980950092   -1.70865273243629   -0.14158449322424
C          19.53639943755168   -0.37957079804445   -0.16272802517120
C          18.76898874895755    0.73260297034045   -0.55796481177587
C          19.32918981077356    2.00924315181205   -0.51579326522421
C          20.63553059223390    2.20693239105642   -0.10503403582425
C          21.43158176518340    1.12490639535436    0.28637891739346
C          22.78681925394847    1.29342684388245    0.71055258146339
C          23.54210781450988    0.23329423281409    1.09043053047934
C          23.01003500522169   -1.09456840807953    1.08563300396346
C          21.66703850817553   -1.29047809122803    0.66837091402730
C          20.87698649892930   -0.18157622213663    0.26303170079250
H          23.82648789492863   -4.32140106981080    1.77750092033758
H          21.49348199283550   -4.67794987376657    1.06113768043638
H          19.33714283753434   -3.76611126560363    0.26124447772133
H          17.97342746753051   -1.85618780348559   -0.44035195950159
H          18.73121933619212    2.85742089691573   -0.83144117180690
H          21.05109547922302    3.20870730651065   -0.08958271319276
H          23.19886617207251    2.29720215144140    0.72113305540538
H          24.56969856617313    0.37348990906329    1.40945008082419
C          17.38321713704908    0.56483961861489   -1.05289442900737
C          17.17002743073268   -0.11945248297460   -2.24943937034872
C          15.89896731745623   -0.26546345157387   -2.77435144536872
C          14.78722762864264    0.25653267838420   -2.10369292069997
C          13.46480881059061    0.14644784244371   -2.62997460351641
C          12.39321797815992    0.62416719126530   -1.94905505842230
C          12.53779565324510    1.25086992973036   -0.67131095451423
C          11.43962600042350    1.72162821574754    0.07788685464417
C          11.66316203862569    2.46249983087559    1.24185252491915
C          12.93840673171236    2.67838778126920    1.72271265691940
C          14.04940380693242    2.15351699450274    1.05019519218811
C          15.37619683924994    2.30036675162078    1.55656438339624
C          16.44380127460414    1.79006364886631    0.89406221116710
C          16.28794246215016    1.10413499808962   -0.35118033461254
C          14.97650598635117    0.93856725284807   -0.87370041508328
C          13.85322319842901    1.45011256573313   -0.16710130423967
H          18.02260204940425   -0.52298127460415   -2.78488440175648
H          15.75813631835866   -0.78692238081242   -3.71488000100481
H          13.33421139644795   -0.32403753216199   -3.59888916701605
H          11.40489017348450    0.55869609206834   -2.38937622157271
H          10.80404101757714    2.84828378611042    1.78023384281995
H          13.08655519978211    3.24135838492937    2.63779012144871
H          15.51171224261492    2.82467247447486    2.49674742419024
H          17.44140414685213    1.89505853613202    1.30588738883752
C          10.04128827357362    1.43515898722600   -0.27311570270625
C           9.60426270336309    0.17644803955183   -0.69463003919032
N           8.32962891511618   -0.08561642397520   -0.93152511600607
C           7.44273966311059    0.89829232676390   -0.73137746226408
C           7.87979921389581    2.15902606553044   -0.31931929370410
N           9.15533655708508    2.42142235485074   -0.08258125223307
H          10.29942243349547   -0.64937578268448   -0.80794980730636
H           7.18398428347982    2.98453765520747   -0.20709493827671
C           6.03821958357405    0.58659502782145   -1.03831941870591
C           5.78814210071837   -0.13655699559891   -2.20730200961254
C           4.50062660146499   -0.41945297364180   -2.61597665578969
C           3.40443922803804    0.00745892711856   -1.85619489511877
C           2.06047267439206   -0.25961407213339   -2.25777094370310
C           1.00719734266278    0.13884229449212   -1.50262020144656
C           1.19840885080022    0.84267156338907   -0.27225442572365
C           0.11814878309612    1.24656222261430    0.53534488685523
C           0.36266300326390    1.89205302641769    1.74746714552066
C           1.65273126320110    2.14820192713810    2.17445926392625
C           2.75046138899454    1.76185499322185    1.39702846085166
C           4.09485024622982    1.97779783098347    1.82576948447388
C           5.14855420427997    1.60229345949504    1.05856047879331
C           4.96249081652387    0.98314723664080   -0.21755071084311
C           3.63290675815499    0.70237115300010   -0.63957683631426
C           2.52707899723067    1.10549011885734    0.15891280700793
H           6.63374352802022   -0.46205747650116   -2.80365183020393
H           4.33033806493785   -0.97147979534520   -3.53386793840136
H           1.89951024858968   -0.79900123230564   -3.18534853998245
H          -0.00575990973346   -0.08419017675525   -1.81874953856905
H          -0.47826342337250    2.20762007910026    2.35552462233505
H           1.82051365203754    2.65182586397333    3.12031054580570
H           4.25808413836522    2.43982746527223    2.79383596297790
H           6.15775563655535    1.74493500999150    1.42749639456775
C          -1.28190697262564    1.01254693747189    0.11269907805858
C          -1.77799425667810    1.67399035928326   -1.01047032756314
C          -3.09053826284933    1.51162053916293   -1.41578941263545
C          -3.95703214381632    0.67200466075839   -0.70693379674852
C          -5.31535163088943    0.47526751004318   -1.10395239604930
C          -6.14169803169655   -0.34195091747287   -0.40585837405771
C          -5.69037094892943   -1.04006238982591    0.75944727488876
C          -6.53144531802651   -1.89601681536779    1.49747801765831
C          -6.01744643832477   -2.60332484224100    2.58335516959078
C          -4.69928063871976   -2.45784014934395    2.97551151815608
C          -3.84106875162779   -1.59749066577935    2.28204140323253
C          -2.47396568669220   -1.42606860333179    2.65935048503911
C          -1.65405102356184   -0.59162980863852    1.97428261792897
C          -2.12188868594194    0.15167067521383    0.84466702049651
C          -3.47142699051911   -0.01874596547598    0.43372760527417
C          -4.33573290937908   -0.88392162877200    1.15922874390448
H          -1.12277312422123    2.33953655728275   -1.56207174025059
H          -3.45615039236376    2.04061813351404   -2.28923507148625
H          -5.67244370516861    0.99462846631514   -1.98715228010263
H          -7.16630186143681   -0.48587118346301   -0.72977580985072
H          -6.67416619307005   -3.26487487253781    3.13809549944404
H          -4.32472575495100   -3.01145506826490    3.82966703193862
H          -2.10159195310532   -1.98717569984459    3.51010139502440
H          -0.61656250374057   -0.48372796428073    2.27045542116669
C          -7.95298323025954   -2.09372313306847    1.13348948257339
C          -8.36757722694796   -3.36087889894682    0.72610095554277
C          -9.68129979824702   -3.60505776877315    0.36997792717371
C         -10.63223160040143   -2.57919295668740    0.41015671657066
C         -11.99924321134294   -2.79985846636388    0.06281424833677
C         -12.90467474902426   -1.79010074516201    0.08824241004054
C         -12.53237873933267   -0.46055806092393    0.46242626385467
C         -13.44622315572681    0.61350683516619    0.47713579114853
C         -13.05492090368676    1.84814409632465    1.00247538423063
C         -11.76533222804068    2.06575479740869    1.44249602310640
C         -10.80825684562391    1.04564067193620    1.36938572958215
C          -9.45645966926497    1.24938122801960    1.78122020682819
C          -8.53924604505014    0.25355969060614    1.70536545485812
C          -8.89005656318261   -1.04501939755582    1.21806877890267
C         -10.23847014717847   -1.28496323105436    0.83894200608577
C         -11.19470554573850   -0.23344322228353    0.89014908870269
H          -7.63775158286797   -4.16170687435732    0.67428636881505
H          -9.98075354782211   -4.59761266168513    0.05131624030059
H         -12.30361504492395   -3.80338047013543   -0.21555515866266
H         -13.94265923365549   -1.99401655393763   -0.14877652695253
H         -13.78703654369856    2.64775477440662    1.03895284999767
H         -11.48136875858921    3.03630184782618    1.83449466676108
H          -9.17687699490604    2.22686821186954    2.16005940653869
H          -7.51861424145946    0.42660806153550    2.02740704065067
C         -14.80562583647905    0.51738407392701   -0.07164822121435
C         -15.09430708532693   -0.10704679746604   -1.28828110428233
N         -16.32386432447086   -0.17442555142427   -1.77102531282335
C         -17.30721532551899    0.38640430010133   -1.05515350639457
C         -17.00107002963066    1.10532574347561    0.10311173367402
N         -15.77199946571353    1.16792794231519    0.58899893221128
H         -14.30561371162169   -0.53321597349206   -1.90023511463253
H         -17.76373803184867    1.66981878411818    0.63019368193167
C         -18.66282382352684    0.30001018515380   -1.61684969904887
C         -18.79564461809618    0.48310704216266   -2.99599521363841
C         -20.03477256921709    0.50118839950947   -3.60370628588517
C         -21.19996220080034    0.32419174157422   -2.84719806469517
C         -22.49878991222915    0.36392984576869   -3.44200948278626
C         -23.61851461450407    0.17321176579386   -2.70104840537077
C         -23.53952930398948   -0.08414656361547   -1.29671271011939
C         -24.68221159931043   -0.29279186027849   -0.51589198085526
C         -24.57333421917756   -0.55069473739326    0.84182665364466
C         -23.32996141523794   -0.61005881978865    1.45179300949029
C         -22.16240493939722   -0.40383771906284    0.70837875762226
C         -20.86212773189766   -0.48473130464166    1.29495553362346
C         -19.74225136750506   -0.26878453648935    0.56068690686587
C         -19.80805618245791    0.05963336280651   -0.83065367910824
C         -21.08712768678152    0.08518858293545   -1.45217620180001
C         -22.26070078905058   -0.13202114500693   -0.68100198624616
H         -17.89706775024035    0.63202879840364   -3.58511636861450
H         -20.11270265054584    0.66194939228365   -4.67349554799973
H         -22.56765605889453    0.55131754437209   -4.50856708725394
H         -24.59962023736263    0.20633836592601   -3.16326007340174
H         -25.46924382613391   -0.71123836080060    1.43165538272203
H         -23.25481413035378   -0.81921752959315    2.51346016833449
H         -20.78680992989534   -0.73662600386972    2.34765569998105
H         -18.76867815266472   -0.37179238549157    1.02634326573595
H          24.79692512126101   -2.05484615870419    1.79897880308224
H         -25.66006543393503   -0.25241937600020   -0.98367609031490
