    42
        -60.40720146
C           5.91477718439789    1.43241073012632    0.74985468022564
C           6.77724492123153    0.45429516814720    1.22710258946498
C           6.39532842784284   -0.87997083567279    1.18248761774996
C           5.16176419546479   -1.23559753520665    0.65941743770998
C           4.28798056603948   -0.25967519450730    0.17572577549367
C           4.67889082102047    1.07988783418913    0.23017407812843
H           7.74425532671053    0.73037536817134    1.63193044950584
H           7.06265644924689   -1.64815017116814    1.55819096911670
H           4.86660417861376   -2.27915964777129    0.64242407103986
H           4.01971170351231    1.84983162114612   -0.15650501719184
C           2.98062532582900   -0.63669582777718   -0.39604238404879
C           2.86656098217259   -1.75632615063559   -1.22259376411728
C           1.63910594830756   -2.09716227655101   -1.76940998585839
C           0.51386883584261   -1.33328146855549   -1.50099216237929
C           0.60431432047213   -0.21178054265998   -0.67330856244906
C           1.84339534045770    0.12397192304394   -0.12769717236593
H           3.74402242100211   -2.34905425157049   -1.45561494921102
H           1.55976473037642   -2.96288769100594   -2.41802799465491
H          -0.43522918387745   -1.59853940558303   -1.95321205622513
H           1.91844326563229    0.97136648443288    0.54513480163560
C          -0.58855600213539    0.60973563388201   -0.38871525486580
C          -0.48668701199288    1.99935222936375   -0.29042370428792
C          -1.61168101395717    2.76588912512480   -0.02879391279414
C          -2.84967747333221    2.16429070167743    0.13605130803947
C          -2.97472941942399    0.77692093204323    0.03744957429478
C          -1.83812558369522    0.01253657453279   -0.22225476988495
H           0.47131733004749    2.48481036268410   -0.43900243310661
H          -1.52407435912490    3.84486636077813    0.03990063703522
H          -3.72608216484918    2.77533917165268    0.32028178183145
H          -1.92285291973452   -1.06811104523602   -0.26105744864871
C          -4.29305769104610    0.13253112310828    0.19643731014898
C          -5.18703138138780    0.57225020830469    1.17485782605096
C          -6.43063539005546   -0.02460002458582    1.31251289807764
C          -6.80216999933967   -1.06651808362762    0.47328331991105
C          -5.91977954205578   -1.51254423046086   -0.50180865588381
C          -4.67388460838472   -0.92006310733132   -0.63861424260270
H          -4.90005609177453    1.37568809679177    1.84465823863560
H          -7.11366430289152    0.32458673862514    2.07931603226102
H          -7.77700551220565   -1.52915654212162    0.57874413300610
H          -3.99830075354147   -1.26362977946126   -1.41482690667462
H           6.20850099569677    2.47623661758697    0.77919596483340
H          -6.20565286511473   -2.32426919391835   -1.16213011694204
