   156
       -283.00130364
O         -23.83568200445302    0.74545942769474    4.51783995839249
S         -24.13534363907891    0.90149085969511    3.11224312895511
O         -24.55576091431972    2.19880168190082    2.63105309568014
C         -25.25653656909584   -0.36142455846139    2.56477467472539
C         -26.56678504784421   -0.52741383037364    2.95234750508060
C         -27.27474936805019   -1.59195343408893    2.39983949680040
C         -26.66535516129192   -2.44709404194360    1.49042875552155
C         -25.34064699610122   -2.26615836467271    1.10995427628291
C         -24.62013783419204   -1.20756368513063    1.65368037326996
C         -23.22332806458562   -0.84310862523284    1.39859662280123
C         -22.30780571201262   -1.46924198379062    0.55828386346898
C         -21.01756316094723   -0.96772258046045    0.46514331189709
C         -20.60889842524444    0.15380872469102    1.19425735672473
C         -21.53005433226105    0.78907472452418    2.03954920656475
C         -22.80211509887408    0.27743949084259    2.11739343008100
H         -27.02927876900489    0.14605710833446    3.66272151181135
H         -27.23121076368502   -3.27097004132603    1.07019003936545
H         -24.87892515342808   -2.94264532042631    0.40046775261554
H         -22.59271562573679   -2.33885182405910   -0.02206099322791
H         -20.31528753000221   -1.45027383843249   -0.20526604579925
H         -21.24378793189699    1.64700567963513    2.63474161176075
O         -15.13649161765617   -1.44165326679869    1.86957283567896
S         -15.38142649384634   -0.64142752511936    0.69079241643863
O         -15.32828253554017   -1.28102408749352   -0.60549884969114
C         -16.88922578913528    0.28256490150085    0.86049965462493
C         -18.15902896096143   -0.23288138166436    0.94797102934016
C         -19.23104632754731    0.66071805364236    1.08428994782831
C         -18.96962232150479    2.03462228132064    1.12008452923937
C         -17.67906042304532    2.53546075453848    1.03006604420537
C         -16.61183388644032    1.65121185142797    0.90141776996229
C         -15.18285856363414    1.95866308575906    0.81453712787437
C         -14.56509285464434    3.20534850469702    0.85293317790109
C         -13.18073033497424    3.27953100336403    0.78493129993394
C         -12.38885400943010    2.13386353604820    0.66889247056832
C         -13.00667027508298    0.87554332979835    0.62959485249219
C         -14.37697583247860    0.82265632385537    0.70288993531088
H         -18.32124962454220   -1.30336605254059    0.93620811308242
H         -19.79687378006555    2.73047598849223    1.20364014938697
H         -17.51060888087294    3.60558138482204    1.05949010952293
H         -15.15357363959958    4.11136020295950    0.93934447332282
H         -12.70011159268560    4.25126328758157    0.81046198004150
H         -12.41628137975095   -0.03034455606758    0.57414606052264
C         -10.91662449117099    2.23177972472167    0.66117668617498
C         -10.29389941989515    2.93634127062088    1.69248699538826
C          -8.91716459228693    2.97667030558040    1.80387798227172
C          -8.10902339131656    2.30005425128555    0.88301545697420
C          -6.68541057218533    2.28839478932541    0.99296986191977
C          -5.91643920965880    1.60885443127708    0.10640060802095
C          -6.49657081605254    0.89079872791152   -0.98635245718640
C          -5.71890525930826    0.17653245436677   -1.91904894813348
C          -6.33075693594252   -0.40948972482230   -3.02710306330770
C          -7.70077844023152   -0.35152491396031   -3.20319315050471
C          -8.51229709811171    0.29514647558489   -2.26411474402795
C          -9.93331356627849    0.34287254092261   -2.39699718843755
C         -10.70761576740022    0.95598251948520   -1.46773017415436
C         -10.13443811594666    1.59330084043569   -0.32229213427269
C          -8.71819506317648    1.61265920893548   -0.19887076688599
C          -7.90771360503805    0.93578346805345   -1.15143655168397
H         -10.90746491427819    3.43210741366659    2.43699988435609
H          -8.45578147390727    3.51908819350032    2.62168770187583
H          -6.22849383825814    2.83831856487887    1.80887586770544
H          -4.83668807569290    1.62163547019575    0.20447363968033
H          -5.71926264127820   -0.94531931948354   -3.74525300182173
H          -8.15565916928366   -0.82619131962383   -4.06563403671148
H         -10.38420826290386   -0.12676028095212   -3.26457428801531
H         -11.78342749094217    0.98918735202218   -1.59747054950367
N          -0.43145110968809    0.62322605690011   -4.55053981039392
C          -1.12135350897857    0.37943633530822   -3.66261503146792
C          -2.00021804250361    0.06440243497634   -2.58611708046511
C          -3.36679145481964    0.30398092846414   -2.74152098026083
C          -4.26667084843691   -0.01971545340805   -1.73022412446222
C          -3.77918349550091   -0.60190995275685   -0.55653249788902
C          -2.42767363055929   -0.85766764071495   -0.40449505158095
C          -1.51634538200687   -0.52942298127714   -1.40775812103972
H          -3.72411291190551    0.75511617267495   -3.66006562368584
H          -4.47037980127446   -0.88101595390021    0.23058533363367
H          -2.06741152588297   -1.30955323452274    0.51311715371206
O           3.82683329626098    1.22020513947308   -2.82617770513981
S           3.63208388644550    0.84557674237477   -1.44619176443786
O           3.61297247854409    1.87987652538607   -0.43637794181254
C           2.21217846365706   -0.20888244330296   -1.26328779669786
C           0.89830001186531    0.13509378798166   -1.47412309874209
C          -0.08395699063872   -0.83258653236387   -1.22612643631262
C           0.29912864941874   -2.10185461628355   -0.78296948915902
C           1.63219550691060   -2.43572930234906   -0.59460415019941
C           2.61169129388930   -1.47690750515227   -0.83416477965550
C           4.06132071531466   -1.61382534055409   -0.68555257625018
C           4.78229536111222   -2.73899957647123   -0.29711567024234
C           6.16438844333632   -2.66214281874689   -0.21274750973202
C           6.85619248589530   -1.48279174320534   -0.50948748268382
C           6.13315406622687   -0.34889518366010   -0.90740427097119
C           4.76473131636025   -0.44439984714186   -0.98275762203181
H           0.62943174316056    1.13057499707937   -1.80390263583900
H          -0.46462563717292   -2.85018516754917   -0.60201131506907
H           1.90086633968206   -3.43174368133828   -0.26242137803085
H           4.27610420077370   -3.66904155466439   -0.06593328567598
H           6.72209371918513   -3.54770310529201    0.07122903058909
H           6.63560848119088    0.58414884957133   -1.13001105958996
O          11.49324548021582    1.54074492668120   -2.14155509738299
S          11.61513736058104    0.10705765161924   -2.27301371750045
O          11.59722272804585   -0.47729978105712   -3.59489381479129
C          10.44697970557939   -0.71566753317680   -1.21503839656113
C           9.07915065307363   -0.71186498720101   -1.34178739925450
C           8.32450138316837   -1.43623977518848   -0.40774648194462
C           8.98578478893033   -2.11945097131527    0.61844406827372
C          10.36818030610804   -2.10908866369613    0.73051176368919
C          11.12120549497473   -1.40231166003240   -0.20234453052864
C          12.57736163494782   -1.27705449359516   -0.28098683704183
C          13.53559121279004   -1.85009951738436    0.54978165752396
C          14.87991667555067   -1.61792342969008    0.29589236180929
C          15.29865137952106   -0.81781591669328   -0.77237736435626
C          14.33650218932213   -0.24861129322331   -1.61826228337600
C          13.01097900951362   -0.48936499506973   -1.35019602154535
H           8.60089167942679   -0.18252399225052   -2.15633080470745
H           8.40430552094820   -2.65804422718278    1.35846869354936
H          10.85017711959732   -2.64699461671732    1.53856455907689
H          13.24163544151370   -2.47910849889727    1.38201599563174
H          15.62498490383656   -2.09096762035140    0.92592261879442
H          14.63287060352944    0.37549828070945   -2.45211337482358
C          16.73346327069344   -0.62144904688610   -1.05466967523297
C          17.19707513927120   -0.89590410555361   -2.34229426774997
C          18.54032715237283   -0.81044560072038   -2.65450398267643
C          19.47532390881465   -0.44299966533777   -1.68029173830844
C          20.87563408814931   -0.40099466167203   -1.95581694908757
C          21.77038933369469   -0.03894011437111   -1.00365876542098
C          21.35038222835170    0.33634898421374    0.31146557643440
C          22.26004872985146    0.72298399787426    1.31523035821258
C          21.79531106627159    1.01361458179847    2.59751631397564
C          20.44743769804671    0.96474840386500    2.90002441852273
C          19.51202794126688    0.60577311559894    1.92330972327132
C          18.11060767574852    0.57605712318024    2.19501452958659
C          17.21722562377905    0.19780426434815    1.24771058519620
C          17.63939471831614   -0.19813955086820   -0.06064609206878
C          19.02432173411909   -0.11912700836250   -0.37407204763788
C          19.96319537633505    0.27504853623824    0.61917771396348
H          16.49005851362580   -1.21351511132430   -3.10095803276455
H          18.87796341950745   -1.04469530990460   -3.65802251676350
H          21.21241349601006   -0.67865417839942   -2.94892764805005
H          22.83044018146826   -0.04041134077585   -1.23063681634605
H          22.50695860239336    1.30724343290076    3.36163785714035
H          20.10698226747080    1.21126964285554    3.89965591900574
H          17.77214067752759    0.87211628417213    3.18233232356934
H          16.15655381647441    0.20862783789221    1.47176952533966
N          26.43185907955751    3.30247269464681   -2.07295889560053
C          26.04306358823439    2.62152305508949   -1.23083867053413
C          25.56325387931540    1.77464695409784   -0.19044920659274
C          24.19028703028994    1.66367659054825    0.03784515508948
C          23.71075206772377    0.83531589359974    1.05012710556998
C          24.62154445312149    0.13348241775022    1.84262167720467
C          25.98551938434420    0.24148243686089    1.61408265509091
C          26.46378516667885    1.05496830595978    0.59991341367793
H          23.49935162677798    2.24287436261409   -0.56363191621773
H          24.25457815967310   -0.51352407212714    2.63150373916828
H          26.68108963767569   -0.31553684669813    2.23170885728060
H         -28.30815893468208   -1.75269331678373    2.68366905700472
H          27.52822624674202    1.14011215946937    0.41717220356396
