   130
       -217.30239187
C          21.63587393051414   -1.29950958886583    0.63840543568812
C          21.27394187906343   -1.89361181500538    1.83746014309888
C          19.94136304917416   -1.97694350199237    2.21015851068174
C          18.93817408149945   -1.45447703683246    1.38604141874296
C          17.55233473116957   -1.54847924312771    1.71973225252920
C          16.59569634378734   -1.01677374822970    0.91805320495172
C          16.92666957473212   -0.32790799602741   -0.29178447420299
C          15.95772687856421    0.25827392150225   -1.13287687385391
C          16.34279495884818    0.77927155089657   -2.37195621753985
C          17.66537348284789    0.80189691193836   -2.76485356501785
C          18.66496574173665    0.29622846426007   -1.92429594011199
C          20.04726553393656    0.34317693713290   -2.28352900350056
C          21.00471498068868   -0.15949431969156   -1.46508875647405
C          20.66376883052955   -0.76792023843892   -0.21687534854810
C          19.29629203459671   -0.83507195614381    0.16043936131496
C          18.29320924256617   -0.28857376953090   -0.68492287187751
H          22.03998772303650   -2.30093440145107    2.48828844952586
H          19.66810751484492   -2.45086479442919    3.14677089723967
H          17.27582656791256   -2.06963846915242    2.63035911786364
H          15.55081156235915   -1.13906344070136    1.17955393675231
H          15.57494204818151    1.19027447371502   -3.01859756895289
H          17.93924209650839    1.22541559395998   -3.72502648539579
H          20.31398210869359    0.79591856292307   -3.23288193231606
H          22.05170196728826   -0.11474951205230   -1.74635378494652
C          14.53991094412661    0.38296742979997   -0.76923192875768
C          14.10670960265788    0.76611741633177    0.50436219226978
N          12.82462993220326    0.89589301796070    0.80371602653469
C          11.93792988595253    0.66728295750129   -0.17346285774292
C          12.37047117992324    0.34617891718851   -1.46251430019692
N          13.65076527739156    0.20680019057940   -1.75792743061325
H          14.81726145902006    1.00500961573891    1.28924263744932
H          11.65015890160043    0.20019974896675   -2.26154358422285
C          10.52166355141296    0.78859055190861    0.15928508074644
C          10.09025915701697    1.09216740640398    1.45289215599322
N           8.80859594798184    1.17392419022631    1.76353448145773
C           7.91665607285362    0.95078511010577    0.78705467117628
C           8.35253574035317    0.70879784645847   -0.51989273871309
N           9.63536646908432    0.61751253358060   -0.83003788009577
H          10.81255759603053    1.26830352573592    2.24397579539832
H           7.64533764083676    0.62021212330132   -1.33848316330150
C           6.49984543172712    1.08336465947401    1.15240202530701
C           6.16546253295869    2.12288345246250    2.02536663090681
C           4.85281876242184    2.39282294008477    2.35283355116001
C           3.81407458870048    1.61953634590658    1.81891525505282
C           2.44339015841366    1.90511465822589    2.09659462574439
C           1.44730248266318    1.13419770524246    1.59380830010766
C           1.72875325507002   -0.00671443273156    0.77889348138673
C           0.70809278817189   -0.82964173982626    0.26225081476155
C           1.03918155838418   -1.90147381083122   -0.56753367849845
C           2.35613116782564   -2.19099948880775   -0.87377817057532
C           3.39619288434057   -1.40745603364548   -0.36107750086144
C           4.76798285895962   -1.71093774628350   -0.61259461956058
C           5.76410743096768   -0.93104583371863   -0.12265344931993
C           5.48649838002683    0.23874401098953    0.65217935974599
C           4.13009922761119    0.52094468156229    0.97708697071310
C           3.08432537311329   -0.29496017253196    0.46315173670207
H           6.96509503153745    2.73516719902700    2.42825154800906
H           4.61663316630917    3.21597373547067    3.01828487227181
H           2.21347154631839    2.76365322968608    2.71885188451565
H           0.41183271295372    1.37889815471377    1.80252508972266
H           0.24733400517868   -2.53533799888846   -0.95187367277996
H           2.58988180614228   -3.04048275765112   -1.50634083890643
H           5.00086950359506   -2.59477461234623   -1.19723541934275
H           6.79708632018663   -1.21051458515619   -0.29511986217522
C          -0.70800338914762   -0.62188974454802    0.63690790432368
C          -1.07069244614443   -0.74483733363520    1.97913017557820
C          -2.38874689525343   -0.62992488906064    2.37879472168639
C          -3.39897341730680   -0.38726433034256    1.44119148262248
C          -4.77207204720149   -0.29500642463578    1.81679757482579
C          -5.74185021526869   -0.06756838046241    0.89658659682760
C          -5.43448177571665    0.10438281433820   -0.48892905760981
C          -6.42702500394815    0.32738999185130   -1.47002766336091
C          -6.05427227726002    0.44679552055358   -2.81158118849561
C          -4.73202196551554    0.37014723275263   -3.20271139440508
C          -3.72230390083914    0.14667614394907   -2.25931139173738
C          -2.34680414788809    0.06549512544251   -2.63340714463475
C          -1.37937346421088   -0.17351600505818   -1.71349846119063
C          -1.69678508945480   -0.35929945392022   -0.33159216134695
C          -3.05543172761028   -0.24451038414532    0.07185583345672
C          -4.07316583884032    0.00320741495126   -0.89115967775217
H          -0.30332244209482   -0.96020748764740    2.71482593332487
H          -2.64816270482717   -0.73995950433302    3.42614584553831
H          -5.02943831460316   -0.41887238972068    2.86351889183742
H          -6.77604466209365   -0.01010024090487    1.21202173506514
H          -6.81896848559281    0.63419430443008   -3.55796892699388
H          -4.46938886857386    0.48508132236976   -4.24870271800498
H          -2.08992564838127    0.20158510948296   -3.67877453339125
H          -0.33954816431487   -0.22055877484056   -2.01758647987497
C          -7.85471687782065    0.41702503305967   -1.12739932070931
C          -8.83031653751975   -0.21664742425876   -1.90475122388950
N         -10.11559468273986   -0.16851610061718   -1.60536631824896
C         -10.47686476460314    0.52708816149454   -0.51783523150381
C          -9.50550438278536    1.16457806829339    0.25562605117379
N          -8.21641008687713    1.11069060171727   -0.04142616466032
H          -8.55416309196693   -0.80070781429078   -2.77733414343505
H          -9.76835335586535    1.72169246010293    1.14959692861635
C         -11.90574790329747    0.53845439864616   -0.18134353903812
C         -12.48220911067750    1.46808631388385    0.68673298030973
N         -13.76913656784933    1.44511559814103    0.99277518028951
C         -14.52878245840888    0.49805048072579    0.42653224123108
C         -13.94638406328265   -0.44610639076533   -0.42533876445245
N         -12.66077165771407   -0.42412941915958   -0.72888530622493
H         -11.89374888136370    2.25877476468410    1.14197663071881
H         -14.52955626731377   -1.26323118371720   -0.83791067766432
C         -15.93772379350875    0.45495089214119    0.84175172622450
C         -16.20352714419748    0.68550650184259    2.19489848949702
C         -17.47877482052515    0.56980804224870    2.70930608968125
C         -18.54980756405624    0.21683248338046    1.87903921872754
C         -19.87442411683017    0.04791860839241    2.38787913094549
C         -20.90473795468921   -0.28531423053479    1.57141390656771
C         -20.70498798097591   -0.46684545835109    0.16727893951096
C         -21.75580505679472   -0.80562768013447   -0.69293382693546
C         -21.53345540767918   -0.96412993940561   -2.05204214658404
C         -20.26685190885885   -0.78463397074475   -2.58600300512032
C         -19.18736726749931   -0.45054241713707   -1.76033879401951
C         -17.87312159069543   -0.23093215823095   -2.27598857769243
C         -16.83427265381468    0.06786778748814   -1.45632441569965
C         -17.00152541637295    0.16924374157169   -0.03871996425476
C         -18.31430929644695    0.03077110363564    0.49121044288937
C         -19.39986498093250   -0.29560260239181   -0.36582521273621
H         -15.37445692572891    0.93962543640066    2.84663590286091
H         -17.65522068312749    0.73980034482922    3.76583977290421
H         -20.03646760344583    0.19119222936797    3.45116739741505
H         -21.90557829868300   -0.41511749529624    1.96982607959964
H         -22.35901091811209   -1.22723791424286   -2.70436805190340
H         -20.10558080911128   -0.90278558807056   -3.65207900344038
H         -17.72317508424964   -0.29783465217335   -3.34851403642341
H         -15.85633957106381    0.26453486482180   -1.88063082182926
H          22.68128584675155   -1.24400637137663    0.35435861056055
H         -22.75187461232218   -0.94364546982266   -0.28619106671456
