   124
       -238.45859117
O         -20.33314152631127   -0.97080397972752    3.19369477799817
S         -20.61475819259142    0.09782103093181    2.26128562437455
O         -20.65233481923353    1.45688862514520    2.75237524566820
C         -22.07057821406399   -0.26599913660570    1.31270336659106
C         -23.35997990613890   -0.36413511589581    1.78409535651157
C         -24.36257311500173   -0.66654394999129    0.86593547192299
C         -24.05531029664453   -0.85868033865672   -0.47519229582522
C         -22.74766483943818   -0.75550542471240   -0.93527370726651
C         -21.73495132425060   -0.45492708572962   -0.02997098474716
C         -20.30070813134729   -0.31166376398330   -0.29701824020509
C         -19.63330109199283   -0.43648814423522   -1.51165025391069
C         -18.25540366528863   -0.27711536767767   -1.54863997908468
C         -17.51625369453296    0.00168298652940   -0.39476046571534
C         -18.18563355909775    0.13521085342204    0.82945187778911
C         -19.55013724021479   -0.02094625007356    0.84405395316212
H         -23.58468788268808   -0.21246087498621    2.83223739801469
H         -24.84801390658615   -1.09449592563974   -1.17625091575006
H         -22.52396570137132   -0.90980543329850   -1.98440939120272
H         -20.17693229229053   -0.66180137461878   -2.42174075686680
H         -17.73786125626878   -0.39561319998102   -2.49411286067501
H         -17.64672491147460    0.37241568456427    1.73816722237695
N         -13.15238735782652    2.19908115214533   -3.63300422781925
C         -13.50392988601534    1.59554145314618   -2.71801189563075
C         -14.04977922448831    0.89361307006891   -1.60283909321050
C         -15.43801052629085    0.77973876035021   -1.53089792365923
C         -16.05093377088194    0.13840499955800   -0.45646212471728
C         -15.24457297294246   -0.38322174055469    0.56002124930037
C         -13.86759930730753   -0.27538868158131    0.49453051270309
C         -13.24097876005405    0.35697486374626   -0.58162397846414
H         -16.04087341603838    1.21759636999404   -2.31830877074135
H         -15.69929643438658   -0.90341248290364    1.39517169941312
H         -13.26641910439273   -0.71540268451112    1.28209493854168
C         -11.77949375405235    0.44316794447713   -0.66912875667734
C         -10.94200680886789    0.45231767707602    0.45006423218704
N          -9.62675826033136    0.50012181815430    0.33895651086924
C          -9.09478246166129    0.55609527010676   -0.89025787100012
C          -9.93682248121502    0.58806825636874   -2.00592068784043
N         -11.25152191518064    0.52365954107186   -1.89526469014055
H         -11.34413996417141    0.43402030670743    1.45804479716793
H          -9.54724982243693    0.66302937817193   -3.01568487373181
O          -4.45900589826420   -0.47768831892611    2.31369478001984
S          -4.37538468575604    0.72222222932701    1.51285363485860
O          -4.44362735972616    2.00618753957178    2.17316594675297
C          -5.52288836311674    0.65447155377362    0.15609303362994
C          -6.89233071049472    0.64661539355250    0.23077594644213
C          -7.62964870907763    0.58126579109726   -0.96489487352859
C          -6.94015798213203    0.52935354025075   -2.18211835182206
C          -5.55475483654683    0.53866734405319   -2.23697413133121
C          -4.82464565317686    0.59955768024543   -1.05396466445280
C          -3.37150080346462    0.60061784785709   -0.89274612703845
C          -2.39882344857336    0.54382890215786   -1.88672526410424
C          -1.06104794105639    0.53643394633381   -1.52409842110175
C          -0.66053737457575    0.58683353470656   -0.18413875264160
C          -1.63727713937639    0.65366207204713    0.81953945358770
C          -2.95813310545309    0.65679355533604    0.44036572843141
H          -7.40786474915054    0.68615929891294    1.18276855152682
H          -7.48927380603708    0.47208883749365   -3.11462035820940
H          -5.05152172684836    0.49413195343631   -3.19576167533942
H          -2.67755176466819    0.50637446884829   -2.93322939451433
H          -0.30696244665645    0.50948155818280   -2.30256353695168
H          -1.36151615295637    0.67827114832993    1.86645953210407
O           4.41042468861871   -0.63042332032655   -2.47992970741998
S           4.28872628698100   -1.07043547280965   -1.10823997208515
O           4.18790810574914   -2.48656220197386   -0.83851213341471
C           2.99011052292498   -0.18188630292770   -0.28614770765378
C           1.65355933522678   -0.22343355270907   -0.59516897375508
C           0.77272315450008    0.57110763781928    0.15287182588173
C           1.28171896720958    1.35418008222751    1.19384396540576
C           2.63777274840750    1.38373322267895    1.48894037656492
C           3.51810182295916    0.61329616130291    0.73420614590474
C           4.97671676286462    0.52832695914334    0.83874886605681
C           5.82266738357929    1.19917754705204    1.71751040778555
C           7.19388050930967    1.00730537850458    1.62174615225562
C           7.75355106137792    0.15760735028224    0.66202121767633
C           6.90367395179372   -0.53226063089097   -0.21426247789078
C           5.55038397515379   -0.33077146556876   -0.10215608172258
H           1.29106105654097   -0.86504871313572   -1.38846602153865
H           0.60583212604348    1.97689439527378    1.76922052068680
H           3.00263559659347    2.01229802492013    2.29290582902054
H           5.42113434931361    1.87475168872976    2.46384825863921
H           7.84754991951395    1.55271223419475    2.29335613891641
H           7.29956370929170   -1.21733779659704   -0.95345276362374
N          12.09164389136517   -0.32500813565755   -3.25501783018055
C          11.71248862159895   -0.31279298867326   -2.16811374897134
C          11.18743694728883   -0.26926460077822   -0.84461842173191
C           9.80635505417272   -0.11858957346534   -0.70821413713189
C           9.21300509669789   -0.00220877710021    0.54713391141133
C          10.03535735379244   -0.02559629206698    1.67881133526744
C          11.40244972068963   -0.17661522594356    1.55032637554550
C          12.00832839518358   -0.31390964545743    0.29748813493360
H           9.19871275919402   -0.06373773818612   -1.60411872894465
H           9.59660978616339    0.05523514826888    2.66683358578622
H          12.03278272852431   -0.19691620567312    2.43261218717847
C          13.46624462166066   -0.47859839728199    0.24196091932853
C          14.14443047870468   -1.16786212095870   -0.76671929653982
N          15.46187297591896   -1.25971546368395   -0.78593629744055
C          16.15417320694371   -0.68044817429663    0.20404292605513
C          15.46986077140656   -0.05989325675096    1.25351320152332
N          14.15207265032683    0.04030787511094    1.26961799038830
H          13.61165092682118   -1.66844964357120   -1.56730972702973
H          15.99391431715464    0.36394851038152    2.10380630781928
O          21.09302772539467    0.21308133219062    3.07458246680483
S          21.08333740315423    0.68170577831610    1.70661361897687
O          21.04002786656880    2.10566071742791    1.46125438612934
C          19.81880716890577   -0.14921135242708    0.77551393460568
C          18.46201213702379   -0.02460343142366    0.94930436667525
C          17.61565456113804   -0.76201961839778    0.10783024946454
C          18.18588771748902   -1.58890401631522   -0.87015768786282
C          19.55708186968080   -1.70039312749153   -1.02903020689685
C          20.39888920115391   -0.96913015601637   -0.19490964879297
C          21.86349095369072   -0.92691222666832   -0.19445072650890
C          22.73871300384839   -1.61504892757269   -1.02899875506590
C          24.10727921139819   -1.43162153142840   -0.86968136882817
C          24.60922773402408   -0.57752811024057    0.10431940104214
C          23.74585686605244    0.11727099671925    0.94801619271843
C          22.39373750736057   -0.07462579678354    0.77714737671212
H          18.07168025323627    0.63902611909494    1.71029662805272
H          17.52290835295733   -2.15195048145581   -1.51814509632634
H          19.96476594378406   -2.34802052721706   -1.79645534231571
H          22.36257914354631   -2.28469951087220   -1.79355674729323
H          24.79399210270615   -1.96458557949782   -1.51771652041152
H          24.12370714223061    0.78579386740753    1.71119980285208
H         -25.38891375373408   -0.75315850802621    1.20261705238578
H          25.68009000321819   -0.44941139169873    0.20978352492895
