   110
       -187.46263282
N          15.79327947631062   -3.82238917005484   -1.77765095191300
C          16.12956169904097   -3.07267414081386   -0.97170349820600
C          16.56450463421382   -2.14279481985579    0.01550015538757
C          17.93323263774341   -1.98271848560105    0.24873785310433
C          18.37760772777892   -1.06974433465350    1.18977739371364
C          17.45975845882433   -0.30970977464477    1.90429859875829
C          16.10041166289793   -0.45930888137885    1.67474892963361
C          15.63184682816315   -1.37133971574531    0.72990346831267
H          18.64123554361689   -2.57935443284375   -0.31484402163189
H          17.80462616676825    0.40113380992523    2.64653769304252
H          15.38812662030152    0.12273334266474    2.24869390129564
C          14.18056009828972   -1.55306754712950    0.51330564861199
C          13.62600958048489   -2.81822556793313    0.70435941342859
C          12.26844830236865   -3.03397967930938    0.56051428317023
C          11.41170962711255   -1.98035530071037    0.22257680292573
C          10.00707697396685   -2.17208170962571    0.05578178498863
C           9.18614595337291   -1.13762582151161   -0.25440251235766
C           9.68881768500422    0.19025004900460   -0.42625462896196
C           8.85834493295084    1.28887102205828   -0.73130717756806
C           9.43195469818933    2.52588643058837   -1.04031659181028
C          10.79656861848584    2.71938688983005   -0.98331842774276
C          11.64731699468222    1.67150701267824   -0.60958356263099
C          13.06053055646566    1.84686851032308   -0.51370740599579
C          13.87492689266013    0.82436237107255   -0.15261183150466
C          13.35392047840715   -0.47478269525055    0.14056924938634
C          11.95414303760021   -0.68682441700191    0.00784594849257
C          11.09505905885696    0.39148548220499   -0.34211945193636
H          14.27334591121102   -3.64138549433398    0.98569626457378
H          11.85870192692784   -4.02579330191584    0.71627238361052
H           9.60757644834645   -3.17386346684505    0.17348508412123
H           8.12874112329858   -1.31958530414104   -0.40895562773690
H           8.77422611818369    3.34550004234051   -1.30900409781790
H          11.21795290654115    3.69127259334560   -1.21535263940232
H          13.47335158072297    2.82377761163566   -0.74217226322299
H          14.94687521999325    0.97844631341071   -0.10064484291843
C           7.39087911934241    1.22443954870013   -0.71215607670788
C           6.66254252196270    0.58118319653513    0.29344441854805
N           5.34105387012478    0.57929737428779    0.31276849532666
C           4.69608864069895    1.22696668411556   -0.66753871645351
C           5.42464932031059    1.91865270756910   -1.63765724243924
N           6.74722598484455    1.92126369248285   -1.65766508081612
H           7.16308700560264    0.08740952085627    1.12033736183072
H           4.93179323261976    2.50077931025952   -2.40974365844974
N          -0.32246187356774    2.42235051917950   -3.59960553201122
C           0.27342437350164    2.03753218946225   -2.69327078269307
C           1.03924529654648    1.58739547844339   -1.57886435836969
C           2.43069580690573    1.59290371188227   -1.68340234997433
C           3.22906870747394    1.20586024669684   -0.60822768874352
C           2.60051011337498    0.79735724019173    0.57500405611068
C           1.22330263499676    0.79917712725488    0.68646830909111
C           0.41627474621052    1.19372556942613   -0.38136152453903
H           2.87550896793500    1.90216233008598   -2.62180782853315
H           3.21463104145486    0.48448555514217    1.41234243022453
H           0.75834991624827    0.47709601356056    1.61188986920975
N          -4.75933210773285   -0.25289233263038   -2.92991841451612
C          -4.09683197568938    0.19164784312658   -2.10090470484299
C          -3.27148227028362    0.73675311219865   -1.07432306612182
C          -1.88434331026780    0.67983340191331   -1.21298380009253
C          -1.05132024411372    1.22237866377627   -0.23785305697305
C          -1.62763316810698    1.81746552071129    0.88750728403675
C          -3.00370258412346    1.89395490543130    1.01831080933349
C          -3.84717850897696    1.35601649257971    0.04876972738327
H          -1.46073835352367    0.20078383955253   -2.08766877482461
H          -0.99069569112943    2.25074585950773    1.65069148479902
H          -3.43610902770788    2.37224300872832    1.89007271899935
C          -5.31320657567188    1.50364726709424    0.17651849852400
C          -5.83839225890871    2.79473974484189    0.20911452614537
C          -7.20204125902181    3.01096468710673    0.27849835291643
C          -8.09070987613113    1.93118920547080    0.32061941568698
C          -9.50318959563235    2.11983503992944    0.40558951931582
C         -10.35403723055834    1.06427591422761    0.43626154560817
C          -9.87682185933135   -0.28279221207613    0.38056824945351
C         -10.73878055513074   -1.39860601716173    0.40097553597625
C         -10.20475188449551   -2.68665873681553    0.49038260377501
C          -8.84089166388870   -2.89882733442065    0.49052212532988
C          -7.95315946191546   -1.81879450513007    0.40582785523630
C          -6.53776159028657   -2.00599925370527    0.38461401527837
C          -5.68825425680925   -0.95169577612095    0.30880799394407
C          -6.17403732712809    0.39219532163884    0.25201582473061
C          -7.57781256945457    0.60801095432893    0.31132735444431
C          -8.47063454592151   -0.49767749455954    0.36457601974222
H          -5.16020313166228    3.63962586567137    0.15641648026463
H          -7.59004326891626    4.02343997248136    0.29313361417149
H          -9.88430869263963    3.13419205227811    0.45641148598182
H         -11.41957351306638    1.23713574511829    0.53501396618171
H         -10.88907546504364   -3.52676536069714    0.54080306161069
H          -8.44792202704897   -3.90817045581957    0.54662587700090
H          -6.15331969855445   -3.01928414990090    0.43406313836203
H          -4.61666730806247   -1.11684779021422    0.30482718426433
C         -12.20127183660673   -1.27697457514479    0.31579239336135
C         -12.84523730020898   -0.43729590931735   -0.59812472544140
N         -14.16197541712263   -0.33744448206303   -0.65123895332576
C         -14.88345722434648   -1.08422641803254    0.19544982501958
C         -14.24116574168603   -1.98875436723816    1.04312023496408
N         -12.92243994542220   -2.08435376112317    1.10284871457234
H         -12.28039382306054    0.14500146254559   -1.31913640809614
H         -14.80263152882528   -2.66196537535060    1.68321844826657
N         -20.08960230454065   -1.92435749615839    2.99230038397869
C         -19.40820228665346   -1.57866662353150    2.13205780346499
C         -18.56220317239385   -1.15081019728333    1.06819665039725
C         -17.18161925846021   -1.33372968035258    1.16506340921574
C         -16.34186556832442   -0.91436419892180    0.13403076331876
C         -16.90669043832084   -0.30000707619140   -0.98993575625078
C         -18.27652695399637   -0.12181557118623   -1.08738945076448
C         -19.11200066117292   -0.54568247490552   -0.06549486899206
H         -16.77500033801641   -1.79014407146526    2.05992937811610
H         -16.25203225440533    0.03374731426859   -1.78733555658678
H         -18.69837754626835    0.35209786952745   -1.96658051437350
H          19.43986050013135   -0.95070251292069    1.36905236055071
H         -20.18436964977836   -0.40823028948039   -0.13614800633575
