    34
        -64.63299501
C           7.53605994967677   -0.10187074355104    0.27280616314988
C           6.83494041501555   -0.08109256418117   -0.92447770093666
N           5.50826852728124   -0.06307721693775   -0.95779490554963
C           4.87291726504472   -0.06583911488555    0.21964884709730
C           5.58601428020590   -0.08681290672389    1.42052647171824
N           6.91018604894284   -0.10473733682845    1.44793590789107
H           7.35068995057167   -0.07885690562858   -1.87969477070411
H           5.06046981654258   -0.08886718891529    2.37023177922217
C           3.41090548723740   -0.04612363221135    0.19742014952567
C           2.68918978123222   -0.02506984563562   -0.99937551907912
N           1.36755364526151   -0.00724060908379   -1.02037480666637
C           0.73667708796352   -0.01011333104841    0.16194215249514
C           1.45867922890036   -0.03117057440988    1.35896431781476
N           2.77976572220453   -0.04898842352500    1.37941350316095
H           3.20904708012394   -0.02290427057617   -1.95245101003666
H           0.93914016537139   -0.03333891707744    2.31212672552559
C          -0.72300547556491    0.00949973167153    0.14673474958567
C          -1.45304905158326    0.03061887325925   -1.04543272683598
N          -2.77210816823864    0.04831859587129   -1.05679473601666
C          -3.40836092828669    0.04552532596459    0.12436440593968
C          -2.67530261038603    0.02438647014510    1.31439190304461
N          -1.35204410940551    0.00660570082301    1.32841610189027
H          -0.94136170564135    0.03293504479492   -2.00271031229233
H          -3.16363458955024    0.02164249256273    2.28378839663409
C          -4.87717709609321    0.06564195136880    0.06894544883392
C          -5.69700141608317    0.06577745769230    1.19970876545939
N          -7.02056930424525    0.08427579898458    1.11083938402985
C          -7.54578037922384    0.10294225247928   -0.11050979701017
C          -6.74083357272105    0.10300248050946   -1.24092761625035
N          -5.41949094890375    0.08456887220330   -1.15583771617485
H          -5.28549656149034    0.05070262936169    2.20381464602927
H          -7.16796038801903    0.11822616867029   -2.23866227170942
H           8.62084568965794   -0.11652871907084    0.29255183034886
H          -8.62827383579780    0.11806245392812   -0.18222776013419
