   110
       -187.45766138
C          17.67223116594630   -1.54037357771627   -1.74720780554782
C          17.21483268325342   -2.83900432835048   -1.90958253403167
C          15.87254252422299   -3.14135094984096   -1.74171331420596
C          14.95558354723268   -2.14120102321214   -1.39951485059931
C          13.56173388839589   -2.41040409539833   -1.23481998246495
C          12.69029929367375   -1.43029466380590   -0.89044560580615
C          13.12491239875969   -0.08445186377384   -0.66846120474134
C          12.24251860468547    0.94996785009862   -0.29944675003794
C          12.71744093198029    2.25659502471495   -0.18253254370356
C          14.05165391783477    2.55747821188451   -0.38459499144099
C          14.96548026909775    1.55168591150787   -0.71817386449175
C          16.35514670927261    1.82616086326571   -0.91261648786671
C          17.22761967302366    0.84100017516416   -1.23902560349384
C          16.78853088001553   -0.50970518346714   -1.40791729184813
C          15.41249669683390   -0.80906466012365   -1.22517148237064
C          14.49863091355591    0.21964363773793   -0.87084642243802
H          17.91370458785187   -3.62553740317178   -2.17253689564400
H          15.52362872712347   -4.15961690227379   -1.87531210210436
H          13.21030557694237   -3.42360299691509   -1.39966617469000
H          11.63454873196445   -1.65766073635189   -0.79371146573368
H          12.02684386147194    3.04471687324109    0.09845912729932
H          14.39781670193062    3.57944316570996   -0.27471852124646
H          16.69671568712518    2.84876887000941   -0.79032303584751
H          18.28050773347459    1.06061143982746   -1.38200927168829
N           8.50957846843563   -2.32449939633508    2.91734760997004
C           8.75191922680428   -1.49000508071687    2.16255417941013
C           9.08509662981827   -0.47807405185699    1.21680907552082
C          10.43320686134963   -0.25772572361415    0.92875764605378
C          10.81609590787186    0.69180926731080   -0.01545551332486
C           9.82311988524353    1.42827775193317   -0.66600822337225
C           8.48490874825812    1.20738236551097   -0.39091786306583
C           8.08890414829881    0.25854849877098    0.55198498849979
H          11.18593318811202   -0.82333615984339    1.46560252799772
H          10.10502416835709    2.17027782738668   -1.40460181330063
H           7.73011149341173    1.79479576173273   -0.90218081593770
N           4.15529697091598   -0.44578851884855    4.87186145854404
C           4.42404248484571   -0.32624879837866    3.75875246291358
C           4.81528959951118   -0.19413728896852    2.39553548053468
C           6.17929165274815   -0.04240349263177    2.13445908394893
C           6.65546147262957    0.05498895513996    0.83028554790149
C           5.74022051305374   -0.02751529537734   -0.22434019506554
C           4.39177003997473   -0.18647388490599    0.02766931120290
C           3.89479452773390   -0.25183150250741    1.33304210798157
H           6.86643869439700    0.01509912085987    2.97020484696721
H           6.09431482434456    0.01792810858276   -1.24808682347747
H           3.68900910147343   -0.25434499627554   -0.79569648040507
C           2.43922582567819   -0.35210731529887    1.50688766308041
C           1.74075779320910    0.16351436706346    2.60049899748742
N           0.41973241395771    0.14596451267322    2.66183885929093
C          -0.25121069367201   -0.39051115576628    1.63482050716136
C           0.44914728049210   -0.96398076092301    0.57027900823632
N           1.76905645394782   -0.92744878222759    0.49845571620016
H           2.25629746178147    0.62905005280748    3.43271987489001
H          -0.06780254857615   -1.48538596282455   -0.22905745470766
C          -1.71755848573288   -0.38641482154432    1.74642346196044
C          -2.25913071327992   -0.68768758439523    2.99890721498995
C          -3.62335884847521   -0.74649710163668    3.19663670143215
C          -4.50577316468830   -0.49087825190744    2.13975558329041
C          -5.92162691758559   -0.53411272910800    2.31558077962409
C          -6.76836218341357   -0.25767276403117    1.29310939348307
C          -6.28000347053589    0.08208466244166   -0.00764053862271
C          -7.13867154465249    0.39224693936302   -1.08065875068480
C          -6.60398119369624    0.78013496777611   -2.30890215864718
C          -5.23770844797515    0.85146375947510   -2.50468670608745
C          -4.35352394129575    0.54465288904205   -1.46441734741810
C          -2.93914723875940    0.65303765463465   -1.62168501883117
C          -2.09234003986324    0.36469628316781   -0.60237944929708
C          -2.57443286136069   -0.07840170272227    0.66927066354193
C          -3.98259526856162   -0.14406646604514    0.86654176984947
C          -4.87277587745969    0.15470959825885   -0.20246548465149
H          -1.57977727883726   -0.88783943002220    3.82027768158863
H          -4.02049570151357   -0.99142290759716    4.17557823540766
H          -6.30980554825342   -0.78343029287980    3.29758396741497
H          -7.83963053758559   -0.27478125395117    1.45905790167336
H          -7.27735061946999    1.01459234919407   -3.12634582756186
H          -4.84353452703563    1.15138484805212   -3.46942312650556
H          -2.55247119176730    0.99174917827549   -2.57710956198132
H          -1.02577127567991    0.49902488773396   -0.73986918526452
N         -12.03061913180371    3.61478677383161   -1.71901351778059
C         -11.47467481136256    2.64832344176057   -1.43273654481463
C         -10.75289062669625    1.46558301427311   -1.10160679566332
C          -9.36319556726858    1.47796334796924   -1.22785185453283
C          -8.60969047379271    0.34351726343571   -0.93987463681794
C          -9.27328125398965   -0.82352672251886   -0.55310137322513
C         -10.65321807519708   -0.84472047147274   -0.43861607221314
C         -11.41606189057788    0.29448024086114   -0.69415318742240
H          -8.86792790696705    2.39079509339952   -1.53860463893235
H          -8.70430605435804   -1.72527842014015   -0.35772588011192
H         -11.14938219551265   -1.75660829531899   -0.12519639603573
N         -16.16335077823933   -2.87684091676557   -1.99120421527787
C         -15.69272146858536   -1.96042357652763   -1.47755322302730
C         -15.00748135283620   -0.85121108993844   -0.89987936313603
C         -13.61966190957870   -0.80730129423522   -1.04029026418054
C         -12.88182875593024    0.26157993353148   -0.53751495183088
C         -13.55740408259182    1.28899697651115    0.12650061573459
C         -14.93207209218689    1.25044227270780    0.27079692327077
C         -15.68511756913188    0.19174140166129   -0.24010197480985
H         -13.11927052706019   -1.60894597158448   -1.57173974168503
H         -12.99954994697996    2.11590054928859    0.54965470724532
H         -15.42708686894720    2.05026619820483    0.80979793123941
C         -17.14659322902334    0.15768306948943   -0.09068180883583
C         -17.91969929427632    1.31717221154629   -0.00357616064353
N         -19.23721736098548    1.27334564407964    0.13793850283703
C         -19.80277297380976    0.07051368622481    0.18009988760049
C         -19.04560850722123   -1.08656853585522    0.07183246709734
N         -17.72658669284921   -1.04561343754637   -0.05618972198733
H         -17.46933765567536    2.30271296772511   -0.06612505766853
H         -19.50592868477381   -2.06890332837299    0.09482033026314
H          18.72452583682225   -1.31512748356849   -1.88328358706199
H         -20.88051952120166    0.03607068452557    0.29970670730648
