   156
       -283.00158249
O         -23.30456093741502   -0.40356809723067   -4.30826641566904
S         -23.30275257324422    0.95263249206818   -3.80834787018632
O         -22.83062880188297    2.01216553029945   -4.66950877520014
C         -24.88745563973486    1.36215220830375   -3.12019297864052
C         -26.07213177446593    1.50763667077616   -3.80568192965017
C         -27.20910242735816    1.83153117391633   -3.06942988226078
C         -27.13337169705948    1.99695237634542   -1.69208172416469
C         -25.92866761174419    1.84747069206082   -1.01498689894645
C         -24.78365805338352    1.52613322195561   -1.73714292071344
C         -23.42233373156322    1.33278036082220   -1.22936900972157
C         -22.97298409023674    1.42529640751791    0.08429972640745
C         -21.63025999621133    1.21015022625392    0.35911974095079
C         -20.71176498893061    0.90615440411583   -0.65106904240719
C         -21.16059463104890    0.81372576934102   -1.97622614055593
C         -22.49457835405157    1.02513662987195   -2.22683865811026
H         -26.11644348500485    1.37540761307917   -4.87930620856002
H         -28.02862975144988    2.24822264922421   -1.13445355852850
H         -25.88608703980511    1.98114380370013    0.05969294221163
H         -23.65826571039617    1.66692048576533    0.88845619509998
H         -21.28327241303813    1.30325197372842    1.38226313351385
H         -20.48001183902737    0.56346919307462   -2.78041350802616
O         -15.46751701338435    2.94171687909453   -1.77313121384043
S         -15.54819940734747    1.49853870516896   -1.75619301422313
O         -15.44550345080094    0.77977812066941   -3.00531442548934
C         -16.98033007757534    0.96826746581082   -0.84705117350388
C         -18.29358603328685    1.17307504941937   -1.19350572809661
C         -19.28995378751394    0.69409890404156   -0.33099566022365
C         -18.91387778815668    0.02090000649797    0.83611530974830
C         -17.58143987631330   -0.18085794221320    1.16536300221347
C         -16.58930927528670    0.30235231965417    0.31716390873375
C         -15.13666174847570    0.22090180131994    0.48279811002196
C         -14.41939348334434   -0.35464396161770    1.52746874253037
C         -13.03239093676546   -0.30734655616052    1.50584075519329
C         -12.33458233237239    0.30289428682572    0.45877059805594
C         -13.05333436083265    0.88813976629662   -0.59259956851717
C         -14.42498958871780    0.82818807287157   -0.55471436593025
H         -18.54885586626294    1.71225205797076   -2.09721769047208
H         -19.68190997769989   -0.37056362094944    1.49401027545505
H         -17.32231448456164   -0.70957094655709    2.07531973943043
H         -14.93262976879501   -0.82767482273625    2.35669997663591
H         -12.47636666411713   -0.72874226669728    2.33588698981423
H         -12.53839373581088    1.36353024194972   -1.41807769398838
C         -10.86194504104761    0.39910617827553    0.47873987592992
C         -10.28498666280757    1.66148778766259    0.33034519417964
C          -8.91670937217638    1.83808438905397    0.40168152862973
C          -8.06981383849509    0.74699338650268    0.62689457786566
C          -6.65319201761760    0.89914054479057    0.71907246972623
C          -5.84396022913584   -0.16520268362959    0.94396752972445
C          -6.37357872208694   -1.48595530511633    1.09117932569868
C          -5.55244323456314   -2.60786127250951    1.31822143635449
C          -6.11488531764889   -3.88287496180607    1.36181766548519
C          -7.47819333955096   -4.06865535555871    1.22510755098179
C          -8.33041529314883   -2.97478912033726    1.03602339702281
C          -9.74265428309448   -3.13202447748598    0.89366290686595
C         -10.55676881898072   -2.06210545155968    0.71585224672131
C         -10.03807592450443   -0.72986660398675    0.66127176639889
C          -8.62990955541867   -0.55121718017683    0.74982369867205
C          -7.77720964109494   -1.67013456881265    0.95960349769041
H         -10.92991224050100    2.52095286844418    0.18305675131332
H          -8.49230183120489    2.83002075302703    0.29351188135245
H          -6.23445742661717    1.89270222535018    0.59973169118738
H          -4.76988517626713   -0.02704962685064    0.99554932916975
H          -5.46937214335852   -4.73848586691903    1.52889750327256
H          -7.89518601770579   -5.06864379207697    1.27233845423311
H         -10.15313815632995   -4.13583626808852    0.92438520760805
H         -11.62321846141104   -2.21055604467489    0.58889048917275
N          -1.42966415047315   -0.02157139856039    4.68439300197038
C          -1.77358647024258   -0.70903877466866    3.82758491217007
C          -2.22723489793556   -1.55102461973085    2.77198491369121
C          -3.60151697194373   -1.67470879780033    2.56089695426466
C          -4.09559616647769   -2.46573049694186    1.52681293408731
C          -3.19109009780711   -3.14457487499881    0.70764411489127
C          -1.82674111854239   -3.00840525261693    0.89895198508663
C          -1.31965524428155   -2.21509742670799    1.92793330474070
H          -4.28684792834995   -1.15741191848867    3.22235635434078
H          -3.56240460934009   -3.76685059366259   -0.09865420819583
H          -1.13907726188826   -3.53868930103186    0.24963855735060
O           3.26209697836893    0.05445044536269   -0.63207476483947
S           3.48660213639883   -1.26649549605537   -0.09131163449310
O           3.62683346290820   -2.37831765449812   -1.00339834664083
C           2.28469362772931   -1.63906328210985    1.16142048169780
C           0.93320916520098   -1.79804382926931    0.97566219622247
C           0.13739990314196   -2.06474145191224    2.09791493544212
C           0.74151555384152   -2.17682640091055    3.35312488760692
C           2.11066056712158   -2.02217101439747    3.51829344106701
C           2.90380936496227   -1.74227978148512    2.40927404174753
C           4.35036194281022   -1.51893051340348    2.35972348636521
C           5.26314060507662   -1.53956322711956    3.41031688480172
C           6.60132542151491   -1.27811476639610    3.15322221359650
C           7.06180196231887   -0.99552398622855    1.86295752572458
C           6.14658098546430   -0.98389223646934    0.80020568887963
C           4.82649384158652   -1.24312965264505    1.07551708288892
H           0.49132297022595   -1.69318444471820   -0.00738170218055
H           0.12878212711310   -2.40127064183998    4.21852907776871
H           2.55087751014896   -2.11645443412671    4.50407400774523
H           4.93825990606465   -1.75673884853779    4.42121105072112
H           7.30902458893556   -1.31074652268264    3.97418732407892
H           6.46428656453430   -0.75232378642087   -0.20870981520333
O          10.88218604809278   -0.63670374605229   -2.38170639936045
S          11.40571572395749   -1.25156188833451   -1.18348424355906
O          11.67452407427827   -2.67195577583598   -1.18922976558790
C          10.41623850533709   -0.81472227335496    0.22640111508459
C           9.10049096127899   -1.14662690883722    0.43687962630593
C           8.48209496183093   -0.69782996403491    1.61284505638261
C           9.22668084039528    0.05446723412373    2.52749787923597
C          10.55483898116086    0.38145440295858    2.29479425237190
C          11.16821349680855   -0.05043472533776    1.12228950158835
C          12.53284692523096    0.21319819656831    0.66063476201018
C          13.52601551748620    0.96243174299380    1.28475230121758
C          14.74959749872373    1.13167609684260    0.65092175374221
C          15.01222879336079    0.56725742914528   -0.60108642303605
C          14.01675953810962   -0.19316167561239   -1.23026726976964
C          12.81519432341756   -0.35297672093526   -0.58519633918033
H           8.56197664297644   -1.75036389285892   -0.28284516517784
H           8.74811791611631    0.41700554135317    3.43055028084049
H          11.10055240639051    0.97691621933983    3.01754434931740
H          13.34721154439767    1.42358435088926    2.24923342076715
H          15.50872926945097    1.74469908824460    1.12381293267725
H          14.19572548807763   -0.64859593956530   -2.19622129764343
C          16.28457181219772    0.81917756522610   -1.30548682942595
C          16.21973023272204    1.32936504648141   -2.60341263172775
C          17.36466645331090    1.64350408158926   -3.30932998843509
C          18.62723673549555    1.45545399093093   -2.73579893452978
C          19.82851377212852    1.77467769677780   -3.43794647189280
C          21.04580623199272    1.59325049680536   -2.86915660075391
C          21.17937741105483    1.07347796754884   -1.54312797672834
C          22.43301385518291    0.88043197441618   -0.92972063751782
C          22.50358964367253    0.28441026388645    0.32913210154298
C          21.36054651085444   -0.09111634860362    1.01007388383277
C          20.09600855595939    0.12138974112619    0.44958646914833
C          18.89592586634497   -0.24972306293605    1.12894773992032
C          17.67674791472603   -0.03121352493225    0.57675033610511
C          17.53887006800698    0.57960709316881   -0.70958854353655
C          18.72061440664191    0.91299075188391   -1.42764487754227
C          19.99936070467251    0.70333476255051   -0.84107428500589
H          15.24801224833858    1.50504728055320   -3.05198433611199
H          17.28869629765508    2.04762618656121   -4.31266218581840
H          19.74568831713610    2.16351291467628   -4.44729511805030
H          21.94421915331982    1.82594406257445   -3.42947615348807
H          23.47525368828233    0.13527589122685    0.78776781621129
H          21.44003452674661   -0.54583899059495    1.99144982463381
H          18.98213394699750   -0.72043829570090    2.10266983233135
H          16.78133868402053   -0.34121761533509    1.10374436550013
N          25.35498580117522    5.48396249420060   -3.32186604089166
C          25.22675829701503    4.39010528004031   -2.98878339654781
C          25.06163086328473    3.03593623922730   -2.57799512936151
C          23.86272272229581    2.63095675953066   -1.98797361226173
C          23.68977912821144    1.30990723158217   -1.57992122361125
C          24.73635954444786    0.40237095180328   -1.75623827929740
C          25.92604541728642    0.80360118266134   -2.34639033152945
C          26.09633106137951    2.11443530035941   -2.76128656656126
H          23.07383682994794    3.35690640287985   -1.82884802750781
H          24.60838996529934   -0.62779695266217   -1.44337995783517
H          26.72715902082685    0.08626079002036   -2.48465112728293
H         -28.15877675190197    1.95494703521425   -3.57656617026641
H          27.02422528747061    2.43095664537988   -3.22231721705330
