   110
       -187.46304566
N         -15.71515976104564    3.39534225666687    1.38378859107605
C         -16.10877810068758    2.47028438087146    0.82334656829111
C         -16.61243621496393    1.32862483893386    0.13664298824186
C         -17.99185098962954    1.10670591065240    0.09799302384091
C         -18.50043824137002   -0.00753039596198   -0.54737388542340
C         -17.63672478495483   -0.90873926794604   -1.15773961483696
C         -16.26682358881487   -0.69773788672360   -1.11945389684683
C         -15.73376984839669    0.41685666304775   -0.47300741542754
H         -18.65734146604028    1.81496135254967    0.57774024414353
H         -18.03292280098245   -1.77832221348133   -1.66967759889769
H         -15.59846248011377   -1.39288991656535   -1.61520219262414
C         -14.27533269177193    0.65910922081652   -0.47302784525356
C         -13.79409204958296    1.84603709407200   -1.02475971340759
C         -12.43772763987353    2.09501905886934   -1.11468444153046
C         -11.50989442952818    1.15975641662111   -0.64303713011674
C         -10.10297467689895    1.35960410892347   -0.77459863152450
C          -9.21466776425772    0.45258349329024   -0.29725287942715
C          -9.64466894502609   -0.73135936033369    0.38047117959863
C          -8.74403571908319   -1.67869784890900    0.91143049013531
C          -9.23015788805207   -2.87784168156213    1.43932498058437
C         -10.58445944973388   -3.13019271706052    1.51875026351879
C         -11.51125135437977   -2.18727347610763    1.05651514379943
C         -12.91883209669106   -2.39938512495571    1.16361848831938
C         -13.80691806228368   -1.49262433723557    0.68588391357095
C         -13.37206314805495   -0.29127765713358    0.04272266276038
C         -11.97542875638103   -0.03867815466848   -0.04232512088671
C         -11.04222115372432   -0.98484424901905    0.46546657550524
H         -14.49986711505696    2.57280019892853   -1.41150868991595
H         -12.08561461263012    3.01723417979843   -1.56349768884705
H          -9.75526516705131    2.25284237471851   -1.28274908861685
H          -8.15362674328073    0.61104971640110   -0.45170969487208
H          -8.51624901746781   -3.60601797407663    1.80892498868454
H         -10.93932845716194   -4.06004098089118    1.94955570568409
H         -13.26614614298906   -3.30734758816549    1.64540081092602
H         -14.87129335454316   -1.66696608982754    0.79652709699456
C          -7.29075747327276   -1.46628838629203    0.94874113887449
C          -6.70113880316516   -0.25477183903059    1.32292733220524
N          -5.39102013918576   -0.08382224861057    1.32527602667599
C          -4.61936225104436   -1.12622966034502    0.98724156649456
C          -5.20690324250481   -2.35842684898615    0.69453525534478
N          -6.51942802898258   -2.52586442778701    0.67362509359245
H          -7.30383069306803    0.58526438750398    1.65297711149639
H          -4.60732395469957   -3.22932197764974    0.44922129033980
N           0.78259471208475   -3.57495111359399    0.95068823043305
C           0.06066465006881   -2.68025002178256    0.89042365320012
C          -0.86200503949135   -1.59564102583831    0.84045554194060
C          -2.22453216817372   -1.88791171580704    0.92727431728221
C          -3.17504599419406   -0.86895235141643    0.92955900608081
C          -2.72928845749324    0.45720695653782    0.86331585786955
C          -1.38327397633532    0.75091662620911    0.77191484594035
C          -0.42242107180751   -0.26238449311902    0.74824300986413
H          -2.52506964879790   -2.92597990587358    1.00942981545863
H          -3.46198607490612    1.25652665453977    0.87449854216176
H          -1.06734078896761    1.78522814514184    0.69340217631590
N           3.73475938716805    3.53963802551309    2.55295909293188
C           3.35222685234054    2.64338433576872    1.94073147459543
C           2.86097426493401    1.53532094417509    1.19161933770243
C           1.52156309018033    1.16984743331107    1.32528677520406
C           1.00452999863872    0.08268792804661    0.62319658591777
C           1.85754052495591   -0.63729384395648   -0.21855119785210
C           3.18872106695195   -0.28168207335034   -0.34903357640916
C           3.71596773798925    0.80504945038942    0.34815828013438
H           0.88791766280439    1.73397499152811    2.00003596829133
H           1.47061406066646   -1.46882004533703   -0.79539279952462
H           3.82744064107778   -0.83815252347183   -1.02566083242921
C           5.12282019399771    1.21551375493754    0.16516071964828
C           5.38619442493600    2.51057519979007   -0.28134306475200
C           6.67923253277452    2.93837130815102   -0.51401515748996
C           7.76193310838842    2.07640078603317   -0.30681473762706
C           9.10964589301858    2.49275873181813   -0.52410721609239
C          10.14902548509225    1.64276865776127   -0.33202052802460
C           9.94186652847636    0.29335422707074    0.09404282676927
C          11.00241054595711   -0.61503269877247    0.29128147941850
C          10.74708181575798   -1.86865726726881    0.85265888057667
C           9.46170513625577   -2.27005569154020    1.15551334506438
C           8.37494716852077   -1.42185408759598    0.90763366695747
C           7.03177311267809   -1.81511630467029    1.18858055372227
C           5.98822804190400   -0.98231513739841    0.94969996122400
C           6.18876557649043    0.32781330948014    0.41218487426208
C           7.52050310467064    0.75908982573757    0.16263650407954
C           8.61356552119919   -0.12318772392515    0.38645915474728
H           4.55676248355141    3.18476637301063   -0.46411144669371
H           6.85976607685167    3.94849047633911   -0.86470038678602
H           9.28797073270553    3.51560654168513   -0.83860021480144
H          11.16410672081791    1.99634324427545   -0.47233001351951
H          11.58400846232093   -2.53553840568580    1.02960234133008
H           9.28551837439554   -3.25301735551218    1.57842300535617
H           6.86205715740781   -2.80191976763445    1.60616055190436
H           4.97843720694385   -1.29855865185300    1.18577204446195
C          12.38883637008548   -0.31495098659448   -0.09223479426189
C          12.72962466682245    0.26867456465019   -1.31618742560973
N          13.98289740251467    0.52959485734483   -1.64392728069338
C          14.94227481955568    0.20511557582525   -0.76668774385644
C          14.60650145137798   -0.45567613418898    0.41639600484525
N          13.35135358246157   -0.71326071407738    0.74819065517111
H          11.97100365465006    0.50275726038233   -2.05636339126056
H          15.36775165647110   -0.79788775198964    1.11029315288073
N          20.55003586959061    1.06809911363421    1.10033275807786
C          19.69946702980519    1.01213167483891    0.32751099239851
C          18.64847603422670    0.94305545153716   -0.63233411309848
C          17.35615197660119    0.60945162702405   -0.22324923331451
C          16.31845038782024    0.54648851124685   -1.15231741636030
C          16.59482659769748    0.83103641629934   -2.49484340493735
C          17.87763175771666    1.15785617030674   -2.90111949324055
C          18.91051326897734    1.21466087933247   -1.97819733240901
H          17.17189746292278    0.41843535863030    0.82745023684225
H          15.78520236532338    0.78946270865805   -3.21502429937395
H          18.07545717333453    1.37140224888212   -3.94546784548363
H         -19.57100387454251   -0.17367665212813   -0.57769634413449
H          19.91596281025146    1.47148475520506   -2.28948793325504
