    92
       -160.62857638
O          11.11783050699466   -3.02855770113658   -0.79876031623908
S          11.17584082149296   -1.94410139633052    0.15597710814035
O          10.85083841421994   -2.21851608909270    1.53863305337985
C          12.72845658435653   -1.08989995511803    0.03695354854892
C          13.97257730647974   -1.58906009783766    0.34942465290915
C          15.06826472281307   -0.74569896262780    0.18226739851812
C          14.89435155368502    0.55129064140677   -0.28423394216179
C          13.63079205784940    1.04017294603220   -0.59501082673642
C          12.52640449397544    0.20941994461490   -0.43363106293557
C          11.11817068823599    0.52137429196184   -0.69549163415827
C          10.57372239875580    1.71319105842126   -1.16354690505204
C           9.19930394003580    1.81172015772025   -1.32994228056106
C           8.34503685350916    0.74579411868735   -1.03462990287942
C           8.89115245814271   -0.46433797520266   -0.58423566670165
C          10.25371490021169   -0.54167494840361   -0.42545406184703
H          14.09348999522845   -2.60163057655203    0.71293071994715
H          15.75821636237949    1.19477874580043   -0.40816659554743
H          13.51163430909809    2.05482130996985   -0.95698183313114
H          11.20976925713541    2.56079793424790   -1.39098901915821
H           8.77435986090040    2.74661057657033   -1.67853378729833
H           8.25818623619700   -1.32027197373749   -0.38668759037959
C           6.88796189777776    0.88920902719527   -1.22463441156329
C           6.41719849013865    1.32905940908272   -2.46228604574637
C           5.06340088226838    1.44813944156451   -2.71330428891944
C           4.12552872895672    1.13195733312470   -1.72394715747295
C           2.72089385076758    1.25171027098393   -1.95045427613781
C           1.82227790723476    0.95102933225575   -0.98060678420496
C           2.24043285786495    0.49324621176747    0.30867488000676
C           1.32773518966069    0.18387570544478    1.33704891706514
C           1.80046953157843   -0.18930636059228    2.59588068714268
C           3.15430893961801   -0.28474631618092    2.85444588440868
C           4.09055856948119    0.00106860786760    1.85454708534298
C           5.49568766092643   -0.06488782285001    2.09801236667506
C           6.39378912113016    0.22018296759122    1.12326462461243
C           5.97411557267568    0.58967803956716   -0.19365545002807
C           4.57952199422147    0.70272107441119   -0.44959097914869
C           3.63554487081649    0.39549262270721    0.56946522721380
H           7.13045498629321    1.55784869277822   -3.24690518244297
H           4.72138662751726    1.78366160746684   -3.68614305351075
H           2.38486322556561    1.60045017458632   -2.92114494438858
H           0.76238528298958    1.07224534369848   -1.17254005346030
H           1.08596220818072   -0.42738470754842    3.37655599036656
H           3.49758116277886   -0.58376293737884    3.83864891782661
H           5.83255308866310   -0.33984109903914    3.09178058905463
H           7.45469392171355    0.18767464013150    1.34276313739237
O          -2.84939425118716   -0.61302832057630   -2.55651141399905
S          -3.14509418736512   -1.14004775556042   -1.24183361351382
O          -3.15380141188013   -2.57388335518103   -1.05493563303109
C          -2.12460394781153   -0.35214321427853   -0.01924403679356
C          -0.75975432671969   -0.45794264537527    0.10420273032271
C          -0.13337851159801    0.25614281734479    1.13465189633274
C          -0.91160013405426    1.02476269090837    2.00502780916386
C          -2.28821739192679    1.12036939079713    1.86256722138856
C          -2.91311979614357    0.42734590364224    0.83025271135723
C          -4.33815716701229    0.39515819382378    0.49720883998330
C          -5.38251555604590    1.06513771711946    1.12723046269554
C          -6.67660138803938    0.90179796470126    0.65398863538802
C          -6.96082903706667    0.07505748774021   -0.43766671393154
C          -5.90940319714541   -0.58856243900109   -1.08505336794205
C          -4.63514473610248   -0.41385544436533   -0.60222518361308
H          -0.18793777946656   -1.09256123506573   -0.56106460127683
H          -0.42159521110689    1.57517661459191    2.80070444242207
H          -2.86410411968719    1.73176983830798    2.54754937806689
H          -5.19271527758284    1.71387791844666    1.97449387073290
H          -7.48495161555620    1.44812935556426    1.12701305329574
H          -6.10070224168667   -1.23418473470790   -1.93305654507689
C          -8.33932438948712   -0.06350163564243   -0.94499174062787
C          -8.57095644389418    0.16504299342993   -2.30251864826849
C          -9.84574966132971    0.11219290563112   -2.83354532507318
C         -10.94542171511015   -0.17608254141401   -2.01760493369032
C         -12.27841506816404   -0.21494825239334   -2.53264921832090
C         -13.33403467203483   -0.49929582090645   -1.73063649304335
C         -13.15175066249900   -0.77637905599072   -0.33951049679575
C         -14.22793615731481   -1.07250883040450    0.50461546531614
C         -14.01922245285875   -1.34095902481975    1.84862107377909
C         -12.73948265786908   -1.32642572741527    2.38131814884751
C         -11.63562871556710   -1.03511831521949    1.57215983295154
C         -10.29893633873313   -1.03578463673175    2.07774703771987
C          -9.24302207721304   -0.73754386480256    1.28071687356612
C          -9.41641797290519   -0.39664272073516   -0.09885699370248
C         -10.73050756851385   -0.44129297099433   -0.63957384806600
C         -11.83709280768585   -0.74985974283116    0.19673008625813
H          -7.73359085328618    0.41668899835235   -2.94435221677125
H          -9.99926984441571    0.30634263393343   -3.88939021861410
H         -12.42542411866342   -0.00935868165180   -3.58776975043434
H         -14.34168451697102   -0.52519518269618   -2.13209363686237
H         -14.86511522098037   -1.56750359277991    2.48840727201203
H         -12.58688814873387   -1.54306869139463    3.43313354759001
H         -10.14335440274091   -1.29215062696909    3.12054519908559
H          -8.23761180930002   -0.77345421388745    1.68503960225758
H          16.06249827197032   -1.10631698168378    0.41859759674146
H         -15.23335900104703   -1.09083647691066    0.09799510543728
