   150
       -275.65092480
O         -23.59449093948778   -3.20791965834485   -0.45158039578480
S         -23.46669679232200   -2.30753497681572   -1.57522681348333
O         -22.91246384178905   -2.80990697444271   -2.81130576435949
C         -25.00002794257216   -1.46386747237737   -1.87578890906224
C         -26.17866924581060   -2.02457317858081   -2.31255822303860
C         -27.27201753565742   -1.17895062989420   -2.48369023094476
C         -27.15995487052066    0.18032290539997   -2.21945351152811
C         -25.96192804453216    0.73091382852110   -1.77934848184381
C         -24.86101277430757   -0.10130327175356   -1.60279328083408
C         -23.51723697730047    0.26622728644682   -1.14706249421952
C         -23.04615702385921    1.52433843668696   -0.78455663820979
C         -21.73120830315444    1.66108008717178   -0.36389671583038
C         -20.86177783156430    0.56739527885210   -0.29847469767834
C         -21.33029928289519   -0.70050671245573   -0.67119228991247
C         -22.63686694099306   -0.81573675775052   -1.07955815356252
H         -26.25158396427038   -3.08562741437470   -2.51477120799095
H         -28.02127760289628    0.82407156010918   -2.35828351551448
H         -25.89049948109615    1.79336695981875   -1.57775555879108
H         -23.69361690433050    2.39238543960555   -0.82844971176695
H         -21.36547717685605    2.64663058687562   -0.09779059145021
H         -20.68894908955139   -1.57135137093507   -0.61775941090323
O         -15.69131663648598   -1.96304739113185   -0.34005101307423
S         -15.67132298979273   -0.54287289515832   -0.60379646912075
O         -15.39081945533706   -0.08600786942744   -1.94591669336846
C         -17.15199245794520    0.22572254499543    0.01062016649810
C         -18.43074313865429    0.02912733290992   -0.45076176173482
C         -19.47300613604532    0.74127955926369    0.15996134637253
C         -19.17672740583803    1.61495139868256    1.21152551938046
C         -17.87903948166604    1.79578326981918    1.66659758441634
C         -16.84092502989334    1.09412911727848    1.05994355229435
C         -15.41372974885211    1.13503658517176    1.37836861445061
C         -14.77159545309056    1.88492469638065    2.35928836276187
C         -13.39672540722307    1.77808567187448    2.50879291115371
C         -12.63026322497202    0.93075504244926    1.69955356003642
C         -13.27779184027663    0.17786824374225    0.70415564897530
C         -14.63694383720538    0.29881636343975    0.57062059066658
H         -18.62343011800748   -0.64275542070064   -1.27777313110395
H         -19.98345068167750    2.15019172006981    1.70008265377952
H         -17.68254754962067    2.47488311375342    2.48812633091010
H         -15.33506807425821    2.54879659398351    3.00478637433937
H         -12.91734746484403    2.37465760589598    3.27629167543592
H         -12.70308842729044   -0.48117531685941    0.06466469135124
C         -11.17682475580986    0.79438652012916    1.84916240141007
C         -10.42907687659022    1.41583362150155    2.85246143546923
N          -9.11636049845537    1.28392867555841    2.93869237694406
C          -8.49662217380933    0.52747805457239    2.02278929292126
C          -9.25098110842070   -0.14701454886196    1.05726787779568
N         -10.56149911472595   -0.00812709182693    0.96851376931462
H         -10.89603992958274    2.03395278820578    3.61252119451647
H          -8.78673016886892   -0.84032057709939    0.36334338637756
C          -7.04308386396689    0.38173135777866    2.17969396269008
C          -6.56371295237478    0.26203315246333    3.48812033290295
C          -5.22612560693784    0.05073252534244    3.74791830704247
C          -4.30619780880032   -0.04713727800415    2.69625068823527
C          -2.91666229436354   -0.26802941928765    2.93286711827349
C          -2.03197703428668   -0.35629076391891    1.90871081444300
C          -2.45306181189031   -0.23366378751967    0.54755095149845
C          -1.55408311653842   -0.32464989466523   -0.53492817597502
C          -2.00848415267612   -0.09663187689299   -1.83450238543443
C          -3.33664492905651    0.18643711747621   -2.08964325107056
C          -4.26486828032962    0.24974448175097   -1.04385204080609
C          -5.63991387482336    0.55553772545523   -1.27334060720614
C          -6.53151325761304    0.60662466481167   -0.25216280976999
C          -6.13771139811915    0.34882975131851    1.09821702677082
C          -4.75857403646518    0.11111288446426    1.36030018989182
C          -3.82505215778649    0.03956094300229    0.28885755632995
H          -7.27536095242070    0.32392251561904    4.30433214251407
H          -4.87943818051956   -0.04809440094180    4.77066989701987
H          -2.57772689236385   -0.35530794303626    3.95978248736215
H          -0.97804772258513   -0.49987284020059    2.11808191603119
H          -1.30592620001304   -0.16507871907929   -2.65792680441485
H          -3.66797609478365    0.35595902314781   -3.10814792479599
H          -5.95758672096890    0.76055516286706   -2.29010027554951
H          -7.56105002107290    0.87862440880765   -0.45381472367054
O           3.69844534438362    0.65435132656408   -2.69480276633871
S           3.59971683163056    0.72535299737742   -1.25426933317799
O           3.67846347646022    2.01782727094800   -0.61329579666399
C           2.17533824398460   -0.16926037315161   -0.68375283281364
C           0.85917347525770    0.16946856225654   -0.88465424494897
C          -0.12969679624241   -0.65799446000237   -0.33551461272579
C           0.25328717274087   -1.80525883566737    0.36674030372547
C           1.58869640760158   -2.13218569674276    0.55621793072726
C           2.57416889381888   -1.30001050711749    0.03309439419096
C           4.02785677262454   -1.44144735181680    0.13599397979391
C           4.75217421720359   -2.43912842453702    0.78193424712223
C           6.13830137178680   -2.38418503236372    0.77495789760947
C           6.83089488866989   -1.34798020093611    0.14013241088951
C           6.10522735721772   -0.34071270340482   -0.51183171183113
C           4.73366201962593   -0.41676616026147   -0.49947762715762
H           0.59089003928632    1.06356056819328   -1.43347210188601
H          -0.51302720262027   -2.46593834514654    0.75651811445127
H           1.85485923375146   -3.02705197610331    1.10679402620133
H           4.24484653910882   -3.25010932896373    1.29142035196754
H           6.69673934968515   -3.15348220520415    1.29681000714342
H           6.61041125120568    0.46610658222316   -1.02804073934205
O          11.32176281194389    2.19846922205649   -0.54480966966695
S          11.42194096595935    1.29478174496571    0.57827809601533
O          11.28145889712463    1.82675255912277    1.91515897953490
C          10.34923936062771   -0.10503353521662    0.35625390380574
C           8.97596165431712   -0.09066711137710    0.32890793957830
C           8.30322554624118   -1.30963308314508    0.16238082230767
C           9.04798088889586   -2.48563420487682    0.02452011905846
C          10.43488461991309   -2.47807743164136    0.04726586628770
C          11.10691849373666   -1.27096504005948    0.21848009446339
C          12.55050977720267   -1.03855827672210    0.27283625926135
C          13.58113958525550   -1.96874284530408    0.16074242925141
C          14.89394708922288   -1.53301462973099    0.22595010562132
C          15.22392591937697   -0.18137014378376    0.40088638579212
C          14.18614600552316    0.75589393866602    0.52186780888612
C          12.89105216369522    0.30402193092189    0.45580430851474
H           8.42963164430462    0.83569520369296    0.45505278339706
H           8.53019784841508   -3.42664000903379   -0.12492466892912
H          10.98403543397299   -3.40515635616793   -0.06928483130629
H          13.36366827430637   -3.02125796838065    0.02054297441162
H          15.70120920687967   -2.25199419074165    0.13623408146120
H          14.38346621113969    1.81062621088414    0.66416564972482
C          16.63915206184205    0.20452758674712    0.43645915697240
C          17.09276846977166    1.52278461631792    0.53010788323250
N          18.37866842805752    1.83042674509186    0.49789550238812
C          19.26161553748842    0.83183515758154    0.36864114889716
C          18.81263594231121   -0.49295765116866    0.35520052751281
N          17.52799744138359   -0.79848981408817    0.37751388289299
H          16.40571788107908    2.35688726823853    0.62739294442371
H          19.51203122805378   -1.32296095275398    0.35661843323187
C          20.68129854828202    1.20577863749531    0.34280141394721
C          21.08740020825299    2.22662256658671    1.20773990569761
C          22.41367752856652    2.59030759053954    1.31969185991170
C          23.39474371283886    1.94336466211288    0.55750713909023
C          24.78025206534877    2.27257478181821    0.67635064704040
C          25.71905363299795    1.64881410367026   -0.07776552245974
C          25.35446353635148    0.64525191570491   -1.02880259540471
C          26.30697068462874   -0.00556225214596   -1.82137845816593
C          25.92250138468486   -0.96748158675170   -2.74263316545278
C          24.58598069251230   -1.29945190461794   -2.90034185893314
C          23.60203989336540   -0.67532213267931   -2.12519857118998
C          22.21237282707476   -0.96749828954286   -2.27961799058571
C          21.27450510228184   -0.36619467077581   -1.50551742153587
C          21.63029839622664    0.57864746433546   -0.49142649546014
C          23.00018036926965    0.94114494868306   -0.36759101149502
C          23.98356178692543    0.30371182454549   -1.17146735517026
H          20.33347513333359    2.71938462452354    1.81212805716349
H          22.70492282414341    3.37520192924312    2.00910210846263
H          25.06433189665237    3.03835766706500    1.39052053361593
H          26.76863225988084    1.90479870162641    0.02229516319677
H          26.67424682905657   -1.46165025110443   -3.34832533948995
H          24.29397421355384   -2.04733781234098   -3.62964122809899
H          21.91760034461328   -1.67792022349181   -3.04485601473977
H          20.22534485973305   -0.58057989057134   -1.67389492030989
H         -28.21613475387733   -1.58658281260314   -2.82538071510425
H          27.35528885978319    0.24984561093227   -1.71020902314110
