   130
       -231.55445443
O         -20.57341057075257    0.10690951504492    2.73660905195918
S         -20.53377803022804    0.98065530341098    1.58537615602236
O         -20.60278670656988    2.40995066293089    1.79494804581836
C         -21.72213696141874    0.47121539811280    0.36835932150316
C         -23.09302326517932    0.49828421119276    0.48964754730230
C         -23.84684487296462    0.05233794231027   -0.59312749109995
C         -23.22186086638660   -0.39937964056330   -1.74876576150241
C         -21.83613248366924   -0.42018509431064   -1.85524833703256
C         -21.06934022572175    0.02063730759842   -0.78127850983362
C         -19.60804336514871    0.07895986911541   -0.68132165027913
C         -18.66395791315568   -0.29370247327901   -1.63304697205374
C         -17.31461579164637   -0.16281655007795   -1.33802905023175
C         -16.87428275166817    0.33571919649428   -0.10760231359275
C         -17.82303865608688    0.71361654116623    0.85313772422927
C         -19.15379831233291    0.57539871914669    0.54236937535145
H         -23.56706654829496    0.85352307270698    1.39587876820606
H         -23.82410981719303   -0.74210090215000   -2.58263823928312
H         -21.36360893838544   -0.77540775914841   -2.76355641921599
H         -18.97221547429479   -0.67929984028466   -2.59787276364828
H         -16.58446363093753   -0.43696724095075   -2.09132325686389
H         -17.51792580409846    1.08632540812048    1.82293660158508
N         -11.69934653482162   -2.20068750703703   -1.07666426729665
C         -12.30446630293888   -1.35917676177228   -0.57534057385965
C         -13.16121347212792   -0.35365775206972   -0.03756625027138
C         -14.52793826104203   -0.48238034023278   -0.28421198219455
C         -15.43502960318021    0.47149319079373    0.17342116098138
C         -14.94535486733137    1.56333748354040    0.89713911041561
C         -13.59109580548457    1.69954600823348    1.14152458262164
C         -12.67090739036328    0.75486642621149    0.68107985821450
H         -14.88025519089592   -1.35126727395977   -0.82847373509346
H         -15.62917993515063    2.32429890616345    1.25545369389440
H         -13.24522555681921    2.55299171914843    1.71361578289239
C         -11.23081019069416    0.90018485467716    0.92070603058204
C         -10.60996315072525    2.13240654417842    1.13756267474302
N          -9.29920889891327    2.24436104137938    1.27883656056860
C          -8.56352405604815    1.12842389319738    1.19968101463484
C          -9.19139810481806   -0.11224040237231    1.05402757906614
N         -10.50006996654045   -0.22075914586553    0.90986989071735
H         -11.17944415494757    3.05568166835050    1.17440801730162
H          -8.62488431266377   -1.03716753255061    1.08540048517905
C          -7.10963714118372    1.28378608452497    1.35321181363590
C          -6.65839214870587    2.15033046677687    2.35195111789487
C          -5.31202587613497    2.30101593290305    2.61546742687234
C          -4.35893523426779    1.59662700016578    1.86901765836251
C          -2.96172150966965    1.69792067945094    2.14344156616853
C          -2.04517798022916    1.04228057696425    1.38857039094690
C          -2.43719155548378    0.23147259551327    0.27746114279445
C          -1.50338230804773   -0.43921381618711   -0.53823259400722
C          -1.95180191969723   -1.29163436084814   -1.54834420417370
C          -3.30008921804495   -1.45259764092414   -1.80395182522857
C          -4.25498745487628   -0.76593549712213   -1.04557462851057
C          -5.65109899833428   -0.85973072920961   -1.32699181220751
C          -6.56731023452227   -0.20047722304389   -0.57523226788828
C          -6.17842472439499    0.59918572561195    0.54516369247358
C          -4.78920603342282    0.75378958258975    0.81115331281806
C          -3.82620872805885    0.07059535845319    0.01766008280447
H          -7.39359230806971    2.69215416955135    2.93705109023670
H          -4.98440800714748    2.96347689783914    3.40912259005868
H          -2.64570145895263    2.31109471197387    2.98082894794513
H          -0.99143516109023    1.11649187067196    1.63279357439308
H          -1.22419752393058   -1.80818534996364   -2.16484728997252
H          -3.62444925905238   -2.10283806013665   -2.60881906210080
H          -5.96605412909139   -1.46292693460621   -2.17180272342281
H          -7.61743231339740   -0.25796808028677   -0.83697170107166
O           3.40957563131606   -3.00291854354716    1.16201771334134
S           3.43735731399734   -2.35016763762673   -0.12778602598552
O           3.45605288639506   -3.16716753384673   -1.32059113660924
C           2.15889071577590   -1.12096967248605   -0.23471637104866
C           0.80517114461528   -1.34714286741337   -0.29724210702626
C          -0.04818367806886   -0.23947234335309   -0.39287161830930
C           0.50286202876914    1.04570687139911   -0.42518587714677
C           1.87357614860104    1.25317557982442   -0.36638813605588
C           2.72461111990978    0.15583210617058   -0.27357279970548
C           4.18832223665117    0.14613729424035   -0.24491673547985
C           5.05809618179863    1.23134397748092   -0.29743431168196
C           6.42665338801423    1.00474407450849   -0.30547233245969
C           6.96037338306288   -0.28755956779533   -0.26280750117431
C           6.08701080638825   -1.38261226496221   -0.19272309290373
C           4.73551045159389   -1.13778139689147   -0.18476131793537
H           0.40567506464405   -2.35311950546687   -0.26488974476077
H          -0.15659723575971    1.89978967291117   -0.53178090193761
H           2.27163984881266    2.26045620266423   -0.40693300269337
H           4.67701540398232    2.24487429282498   -0.34444233710987
H           7.09743722411573    1.85389305792565   -0.37480183157505
H           6.46486880532467   -2.39575554447499   -0.13513065497150
N          11.08195919890541   -3.70442341085827   -2.64776442700036
C          10.77313738014626   -2.83695251287619   -1.95661238720890
C          10.32697286305259   -1.76065495271338   -1.13718709879400
C           8.94736656325279   -1.56590085554536   -1.03993562456483
C           8.41694700124812   -0.49645786675135   -0.32196699185615
C           9.30134998712420    0.38685853588300    0.30709215006987
C          10.66611773115710    0.19662820965808    0.21792937503685
C          11.21252924441031   -0.87511681012506   -0.49532370508071
H           8.28847471190324   -2.24717274662948   -1.56589934659598
H           8.91597920226596    1.22026185847534    0.88328275734706
H          11.34329666994787    0.88834921931053    0.70714498578975
C          12.67548730680251   -0.99211401291976   -0.55261516041670
C          13.37141968718418   -2.19089544434528   -0.71637587455301
N          14.69305194170999   -2.23698310719196   -0.75404889259316
C          15.36725477026285   -1.08905719878679   -0.61327590428341
C          14.67057424848046    0.11235627344484   -0.45144429894839
N          13.35047511311599    0.15872316121500   -0.41245697598113
H          12.85305929031295   -3.13909078804252   -0.80267589775062
H          15.19275449260105    1.06185919423466   -0.39104023152628
C          16.82861974048974   -1.16359032802394   -0.74597150843041
C          17.32807876034551   -2.00293248811927   -1.74626348782675
C          18.67808757135848   -2.06627299928867   -2.02531399039389
C          19.58996236493640   -1.28804012468734   -1.30155641493834
C          20.98955074379464   -1.30277874307330   -1.59039317543033
C          21.86421110282024   -0.55511758790365   -0.87286159886890
C          21.41844137377354    0.26869867582872    0.20755998515528
C          22.30530719562178    1.04316877718956    0.96398315285642
C          21.84473065085884    1.82467668459967    2.01238504485263
C          20.49679303668925    1.85035212083722    2.33448255980765
C          19.57572054587176    1.09413584344876    1.60069337203860
C          18.18329154442248    1.07170559121146    1.91969498461484
C          17.30237808212171    0.34767038984728    1.18465352867839
C          17.72171487666663   -0.41800852620838    0.05073507672571
C          19.11240863822269   -0.46999770367493   -0.24377014586718
C          20.03320447451121    0.29700608073972    0.51956872785291
H          16.62390501405055   -2.59423156519154   -2.32156719171089
H          19.03847667398374   -2.71268085755381   -2.81801795266573
H          21.33721262684793   -1.93045481292534   -2.40428764619335
H          22.92448011184964   -0.57247472431206   -1.10245613820862
H          22.54610131039152    2.41844557494891    2.58836497018862
H          20.14677069177362    2.45878318757837    3.16137678852308
H          17.84242402856835    1.64168887267336    2.77777499851215
H          16.25818522584500    0.32033535507118    1.47477509152661
H         -24.92874368883450    0.05856762441711   -0.53176322386194
H          23.36287899674710    1.02740005783069    0.72343010593900
