   142
       -232.00982769
C          21.39765697033637    1.53011905498026   -0.99323565576396
C          20.82889460968747    1.95434293968067   -2.18428525180131
C          19.45660035624955    1.89678645485509   -2.37160804453281
C          18.62115568571479    1.40344908877944   -1.36325514836209
C          17.20072716839157    1.34619846050722   -1.51113168963320
C          16.40877631976653    0.85025975697691   -0.52846302518908
C          16.95625659201787    0.35507327436853    0.69815204115346
C          16.15771456516672   -0.17889794824978    1.72905880913249
C          16.74826326933489   -0.55916489232868    2.93480993337197
C          18.11332886253927   -0.46074575505211    3.13013356977573
C          18.94416286528957    0.02742984909845    2.11552643835698
C          20.36211022335168    0.11623608683041    2.27645751870863
C          21.15387978524675    0.59261983724970    1.28425380810474
C          20.59812277882525    1.03212802286113    0.04182642714432
C          19.19200412335944    0.96002244525035   -0.14204242847534
C          18.36161767208069    0.44802948950482    0.89113253149707
H          21.46368314324427    2.33716723397637   -2.97600256604825
H          19.02102786474973    2.23556906796147   -3.30535652631697
H          16.76416859622241    1.71854790051178   -2.43204732818913
H          15.33235687259638    0.83973263631267   -0.65846400208722
H          16.12237416699866   -0.96488529705425    3.72262475678144
H          18.54848056028224   -0.77426385861425    4.07283103112351
H          20.79165236503249   -0.21102616812946    3.21763431976128
H          22.22920585302939    0.65262338846967    1.41545145165317
N          12.00902571922364   -2.57447005391661   -1.72725912252247
C          12.35128677540138   -2.01002694236336   -0.78402774233001
C          12.81405719960849   -1.29817986395660    0.35974369892089
C          14.18845400514353   -1.09108828607141    0.49342107763385
C          14.70183212125113   -0.36977579038385    1.56846264739708
C          13.81218074137467    0.13552830035440    2.52000721569631
C          12.44859237399815   -0.06157046069497    2.38876832616521
C          11.92156102058866   -0.77937244470109    1.31471262352045
H          14.85895388193806   -1.51853613842140   -0.24314310105905
H          14.19433876923059    0.69977007452403    3.36328459706450
H          11.77806230726548    0.33268340686067    3.14433916812087
N           6.66920103285419    1.87252305690061    1.94856011987045
C           7.34943120904694    0.98401308692410    1.68052555284648
C           8.20936549943990   -0.10903626411805    1.36869398604508
C           9.59032624158481    0.06868776894824    1.46442736782862
C          10.46523917487838   -0.98363422785468    1.20379490883811
C           9.93205716452712   -2.22971114283292    0.86267785389980
C           8.56316530703167   -2.41171905093882    0.77331760992218
C           7.67894032134405   -1.36031141341929    1.00884441783268
H           9.97758826855666    1.04566306531553    1.73042293837055
H          10.59393870301909   -3.06825816258579    0.68203487703387
H           8.16770436774897   -3.38442083907486    0.50295428418703
C           6.22117134272305   -1.59127510374992    0.93282869026001
C           5.66876734854316   -2.56778768368554    1.76165267713988
C           4.30872023604764   -2.81414182745821    1.77146281378777
C           3.44945520212671   -2.09251598775367    0.93557917913706
C           2.03765780941149   -2.30934208146398    0.93618129049077
C           1.21917661729170   -1.61520403884139    0.10804850543207
C           1.73462983171077   -0.64128442891753   -0.80448405936836
C           0.89974808643813    0.08634554177364   -1.67458046640294
C           1.44914272218456    1.05878148839416   -2.50897168954488
C           2.81008717764651    1.30757739134935   -2.51760651015783
C           3.67242139698647    0.58996423093325   -1.68136006882736
C           5.08583202567578    0.79545108279187   -1.69307391043779
C           5.90650169576769    0.09672455018063   -0.87054242174386
C           5.39203248132779   -0.86357747693483    0.05724642049570
C           3.99272957877670   -1.11412120555062    0.06265070118022
C           3.13248430841131   -0.38741351081582   -0.80582142413895
H           6.32068208561051   -3.12331043396025    2.42735038893862
H           3.90032262877761   -3.56793002733933    2.43563336793759
H           1.63130786505251   -3.04516533565712    1.62217652575913
H           0.14884574299462   -1.78742599379855    0.13134476189056
H           0.79729704274073    1.60879925840358   -3.17887316629461
H           3.21726061621458    2.05920949723066   -3.18493081888749
H           5.49371906772850    1.52335331378817   -2.38660067563968
H           6.97794406495277    0.25542080450283   -0.91289357898591
C          -0.55031360289914   -0.20793044042664   -1.74370946196564
C          -0.95659760068031   -1.45411965878115   -2.22255785049520
C          -2.29567355685440   -1.78425558576649   -2.31741930940419
C          -3.28180385435783   -0.87788898336676   -1.91241041991399
C          -4.67298180706331   -1.19079823723126   -1.98761897388946
C          -5.61505894649734   -0.31867236804548   -1.55115643826431
C          -5.25704291713539    0.95324165637525   -1.00227588599449
C          -6.21662891021776    1.86336232303983   -0.51522257964036
C          -5.81680250224699    3.13168827782978   -0.09564445014528
C          -4.48293160224272    3.49696643628197   -0.09069574371500
C          -3.49507986323183    2.59546332269592   -0.50332034964251
C          -2.10376085240734    2.91521878778649   -0.44388631434719
C          -1.15901783779324    2.02434886894614   -0.83423153769105
C          -1.51508375304143    0.73667996380993   -1.34627376759934
C          -2.89279984788386    0.39393510280610   -1.41753834967713
C          -3.88311240792708    1.31639741679772   -0.98098044714811
H          -0.20242735097972   -2.16673938443675   -2.53850740100910
H          -2.58822764247152   -2.75508827296474   -2.70237295875038
H          -4.96276328428494   -2.14970673845351   -2.40448420940421
H          -6.66601601273174   -0.57316269144275   -1.63103340902848
H          -6.56588083578896    3.82857024832236    0.26487165033976
H          -4.19435040119760    4.48255812011034    0.25786566926735
H          -1.81670439137992    3.88970452796707   -0.06304041634494
H          -0.10727590867971    2.27802466317774   -0.76108825066709
N         -11.78675287665300    3.43853035155392   -1.78047387633205
C         -10.99549809343705    2.73512508945180   -1.32842362575260
C          -9.99354959053989    1.89151861612815   -0.76851541594395
C          -8.65345008882940    2.25642638675533   -0.92190019602362
C          -7.63615886925275    1.47720623092813   -0.37947536051411
C          -7.98236479646196    0.33470089254757    0.34872245705123
C          -9.30791862617000   -0.02368541852364    0.51388813101139
C         -10.33627049714362    0.73543455278004   -0.04531340768299
H          -8.41044508244486    3.15048271820242   -1.48476853753465
H          -7.20328527349753   -0.26621722824465    0.80407724274734
H          -9.55241874783700   -0.92053802261587    1.07221703432125
N         -14.18700390535442   -1.34347112636741    3.92385737010728
C         -13.88017491414581   -1.01034356624614    2.86573463557074
C         -13.47494178353428   -0.58931786707031    1.56626924842000
C         -12.16896603174639   -0.13456442550688    1.38297950726158
C         -11.73597923288467    0.30696675404993    0.13468363812346
C         -12.63845119819739    0.29140089257506   -0.93201227880934
C         -13.93547231500579   -0.15918092968852   -0.75398627553230
C         -14.37906728142061   -0.60806725424705    0.48988025736316
H         -11.49566778553464   -0.11202791081835    2.23232490167883
H         -12.31514659979437    0.61048642789817   -1.91581555237494
H         -14.61019655585770   -0.19210064991946   -1.60199341731372
C         -15.74468627968136   -1.14189609991823    0.66735992016848
C         -15.89373703828785   -2.44046584087367    1.15641824336718
C         -17.14235274648085   -3.01397093113827    1.30527241242387
C         -18.29836698984609   -2.29919604004793    0.97269956018486
C         -19.60330071102510   -2.86812749688001    1.10508484428184
C         -20.71457144102325   -2.16019932038317    0.78515614595338
C         -20.62193062614647   -0.81525382141488    0.30745172189004
C         -21.75680531875792   -0.06604907141377   -0.02357304919379
C         -21.63475614219099    1.23700561590469   -0.48062508417598
C         -20.38636675732377    1.82455514543059   -0.61574814648508
C         -19.22597324951820    1.11077579139684   -0.29619704322235
C         -17.92266776592076    1.68777921532838   -0.40483195901279
C         -16.80907129251873    0.97808157427824   -0.09665050456284
C         -16.88547427036675   -0.38234550381357    0.34219711318072
C         -18.17145315333405   -0.96906714181067    0.49349221249052
C         -19.33770755775221   -0.22573597276553    0.16761042422999
H         -15.00793761550686   -3.01493341025711    1.40419610158079
H         -17.22921944335925   -4.02844599035788    1.67886756072858
H         -19.68261187891012   -3.88674337649178    1.47032464968245
H         -21.70044543324423   -2.60139797213147    0.88878776581825
H         -22.52505551738635    1.80280569633480   -0.73290075997967
H         -20.30241770981002    2.84612872200069   -0.97040696001594
H         -17.84272182951998    2.71836636794749   -0.73445496072383
H         -15.83382744978246    1.44649281801804   -0.16783346263556
H          22.47243221530141    1.58274726019732   -0.85643206104607
H         -22.73901861154059   -0.51431285628026    0.08112923248030
