   142
       -232.00895200
N         -19.50811436742046   -1.66564769115543   -1.07757298992390
C         -19.74310000837641   -0.64311205803834   -0.60429837845044
C         -20.04830768277970    0.62576955745412   -0.03384824997565
C         -21.30636141569632    1.19262409270341   -0.25626724634375
C         -21.61354336072269    2.43499641616556    0.27165734257822
C         -20.66801998645011    3.12067034974390    1.02452685229253
C         -19.41617360897666    2.56669626672674    1.24516927814030
C         -19.08575291265421    1.31779077790644    0.72076493351636
H         -22.03637329865833    0.65072115138705   -0.84632429882536
H         -20.90871769836470    4.09096867720109    1.44390946252918
H         -18.68799246893406    3.09787647328934    1.84793948267040
C         -17.76038530036395    0.71588586750249    0.98171864537353
C         -17.69597863389275   -0.51441119063635    1.63482972277519
C         -16.48183114822637   -1.10120909438347    1.93945561395198
C         -15.28022362692444   -0.47438864580859    1.59137440851122
C         -14.00953021307636   -1.05517209464124    1.89089794224582
C         -12.85365991559542   -0.44037361761332    1.53866720801417
C         -12.85813916053984    0.81563497608407    0.85370720961474
C         -11.67027996148285    1.46069826617100    0.46313279828306
C         -11.73320081907641    2.66585834015721   -0.23665707939518
C         -12.94683388602326    3.25017136330683   -0.54930301590555
C         -14.14841454829054    2.63785058078335   -0.17628367862194
C         -15.41868777335414    3.20283360393432   -0.50343949169847
C         -16.57456496707450    2.59556882682310   -0.13824046136522
C         -16.57280838872245    1.36748883961426    0.59618350119482
C         -15.32164235664706    0.76858717322944    0.90760674478874
C         -14.10902542402822    1.40814814322594    0.53075099941258
H         -18.61768473437646   -1.00824621557371    1.92229075845101
H         -16.45686178269171   -2.05450478911027    2.45580307934388
H         -13.99069438682955   -2.01002980761408    2.40571670566700
H         -11.89825811231242   -0.90106260568915    1.76460788198305
H         -10.80948148067279    3.15596537184552   -0.52477937715403
H         -12.97214437322289    4.19113017145156   -1.08805029339909
H         -15.43886921875866    4.13180959556439   -1.06367618273517
H         -17.52685079428748    3.03320329211440   -0.41614274236139
C         -10.33871293066472    0.90445395799001    0.79914978328138
C          -9.92150383028758    0.87650202086804    2.12931553824400
C          -8.65450417279528    0.43969567423770    2.47282270782083
C          -7.75395996802663    0.01785561081552    1.48811318956770
C          -6.43337449213678   -0.42462370265645    1.80561882856886
C          -5.56445960373528   -0.80298306548963    0.83538185832329
C          -5.93599075273398   -0.78876683482164   -0.54640697883959
C          -5.04865129907131   -1.16457222720402   -1.57424005149663
C          -5.50713253414095   -1.24188449938995   -2.88998644391581
C          -6.80535399495873   -0.90054927133026   -3.21947818048648
C          -7.69546938626939   -0.45663419157354   -2.23518287920938
C          -9.02683903149789   -0.04555914030442   -2.55001844771442
C          -9.87155617497776    0.39869091807872   -1.58720518397245
C          -9.47159690667901    0.45520623262130   -0.21481396891415
C          -8.16493871736166    0.01701871505616    0.12994912582192
C          -7.26536140450012   -0.41396417181015   -0.88322371115153
H         -10.59844877506341    1.22513079902298    2.90172621175724
H          -8.34773792673633    0.43488320185084    3.51309911559647
H          -6.13774343476340   -0.45241437283813    2.84916830316790
H          -4.57136299231930   -1.14743839305994    1.10177925472886
H          -4.81776579728825   -1.54389274863372   -3.67132851554165
H          -7.13404892469871   -0.95437151140582   -4.25158315237870
H          -9.34743708167662   -0.09284127544973   -3.58542096487340
H         -10.87847604389064    0.70820385563649   -1.84441587550491
N          -0.13923808633781    1.19501922560657    0.71060185472868
C          -0.71303659636466    0.37732758627351    0.13843011492666
C          -1.45827116618075   -0.62761278797796   -0.54289522928337
C          -2.83621202985142   -0.45561910123869   -0.68072451228160
C          -3.61508396329143   -1.41592290747241   -1.32281926975933
C          -2.99349223632511   -2.57273166135734   -1.79969947338335
C          -1.62830685109329   -2.75324438998172   -1.65529419875402
C          -0.83307048627079   -1.78124297415106   -1.04888360929518
H          -3.29345077201023    0.45539260448965   -0.31212367888698
H          -3.58767836880795   -3.33687095722960   -2.28816193009239
H          -1.16241294324946   -3.64928567025176   -2.05057088781164
N           3.54254797568960   -5.58744006247294    0.15021618017690
C           3.13149566495848   -4.56946566357600   -0.19566396398137
C           2.59213583714645   -3.31920902150801   -0.61455210992356
C           1.20497248006887   -3.15591481354296   -0.61945991234849
C           0.63175306670299   -1.94439152241610   -0.99541877631937
C           1.47240915976122   -0.89252960258140   -1.37146627059766
C           2.84564038231070   -1.05189432849794   -1.37283938042680
C           3.43517546456556   -2.26002389358580   -0.99481599197710
H           0.57580167384022   -3.98253161758959   -0.30932393358128
H           1.04451432851783    0.04967776206450   -1.69307754327090
H           3.47706665589135   -0.23495704717653   -1.70349428047661
C           4.89919194413482   -2.42004489499510   -1.07694614818297
C           5.42084017924858   -3.48386229548666   -1.81471443940142
C           6.77991543718883   -3.61006870322799   -2.03039333746142
C           7.67247126937848   -2.65525011385044   -1.53006950775258
C           9.07683579662273   -2.72737386685247   -1.78011018817717
C           9.92283412305052   -1.76984011504409   -1.32562203710960
C           9.44709937380989   -0.65669756339188   -0.56341961426969
C          10.30499851112093    0.36218100497814   -0.10430063246387
C           9.79604798020817    1.38081952263758    0.70345260682459
C           8.45706825719457    1.42556231859268    1.04407546361116
C           7.56804985528278    0.45525100714624    0.56763175252392
C           6.17451257044223    0.48747730116882    0.87666948563851
C           5.31825918837194   -0.43182761384783    0.36550736323810
C           5.77447225036314   -1.47776076190211   -0.49760847517748
C           7.16967676948005   -1.58132089940777   -0.75043743807136
C           8.06352967694936   -0.59841295289528   -0.24322074677420
H           4.74160251750059   -4.20750017711869   -2.25143721727977
H           7.15927036212053   -4.44120105839189   -2.61459696401589
H           9.45386345579471   -3.56917298070119   -2.35135732266737
H          10.98627356082664   -1.84381392224105   -1.52444892059899
H          10.46273638911781    2.16580822667602    1.04379628030473
H           8.08363702139598    2.23022378903615    1.66804995823162
H           5.81152031250021    1.27114218164003    1.53325352124057
H           4.26667642900578   -0.39390176881465    0.62636996454126
C          11.71942861052916    0.42951139242527   -0.53019925057828
C          12.00173512025160    0.54619942826052   -1.89264190470674
C          13.29681163312964    0.71244095668875   -2.34584448452397
C          14.36549668559893    0.76696251440309   -1.44390386269809
C          15.70896477516955    0.98349600443026   -1.87587814463032
C          16.73483584693700    1.03063334657797   -0.99039649000701
C          16.51942128745855    0.84993492375074    0.41257640249541
C          17.56943557265316    0.88471529867074    1.35168435520098
C          17.28472155260207    0.77871995680752    2.71302704373707
C          15.99007483448746    0.60261966200680    3.16450476081092
C          14.92451691701259    0.53450116772488    2.26014425994557
C          13.57938819892557    0.32443217836857    2.69247025569572
C          12.55373310981185    0.28104185997709    1.80675755680614
C          12.77350331028114    0.45369877873050    0.40383603066234
C          14.10773205012296    0.62641964066065   -0.05560734586967
C          15.18533692913533    0.66981640912971    0.87153669862594
H          11.18190021581911    0.53662881767995   -2.60278597769933
H          13.48988746879553    0.81709332852699   -3.40796357609581
H          15.89186898533133    1.12128636535908   -2.93640860127594
H          17.74223728977125    1.22219709390337   -1.34218805480854
H          18.10162502985905    0.81041620224435    3.42615303655729
H          15.79540629843659    0.50871319085500    4.22726705025068
H          13.39593306936890    0.19442749663200    3.75386982864484
H          11.54189594004301    0.10458603934798    2.15425901988294
N          21.91723146606914   -1.37215536697607   -2.04280153221244
C          21.46106969550631   -0.64314559612660   -1.27829273228361
C          20.89242417899310    0.26522078359988   -0.33962315679929
C          19.55122796353858    0.13669579434223    0.02656389684025
C          18.98206515359019    1.02384986129353    0.93812945567897
C          19.77703536400769    2.02979215868589    1.49205189748851
C          21.10963282052700    2.15779420237444    1.12851511936318
C          21.67353139115061    1.28406415636486    0.21310634314271
H          18.95983669317562   -0.67210733545800   -0.38651967595920
H          19.34083435215452    2.72522480321142    2.20039951743945
H          21.71284660693671    2.94756250249871    1.56206774524832
H         -22.59103825616436    2.86988242937746    0.09821315647339
H          22.71350340998399    1.38194878972509   -0.07441189303979
