   110
       -187.46018081
N         -15.09340495598828    0.81569463667821   -2.88934374841307
C         -15.75681938018430    0.43798897745691   -2.02764183311643
C         -16.60156323698842   -0.00745894444880   -0.97091193591937
C         -17.98640667692891    0.10376762365448   -1.12548912408406
C         -18.83709349079006   -0.28401493350328   -0.10449711625765
C         -18.31154983928077   -0.77805153553759    1.08287748063320
C         -16.93919903214796   -0.88792090340204    1.24531222378335
C         -16.06445430900244   -0.51349929750517    0.22618931500372
H         -18.38608212427728    0.49932917015791   -2.05203565888122
H         -18.97398551147517   -1.08196542345636    1.88526790053847
H         -16.53742110762676   -1.28869746076898    2.16934979084687
N         -11.61692856427858    0.49900434015264    4.00050360975206
C         -12.06441901740363    0.11190787845971    3.01340384505255
C         -12.63768432584949   -0.35799186243783    1.79666116794843
C         -14.01443534945518   -0.23363893925988    1.60397358329317
C         -14.60716615156366   -0.65132279826316    0.41520654010041
C         -13.80000772825908   -1.21407648905941   -0.57697868019775
C         -12.43460903861026   -1.33987081987133   -0.38926244670887
C         -11.82659495497572   -0.90873000630982    0.78985428734733
H         -14.61777821970408    0.21700719769314    2.38379216443050
H         -14.24754684682049   -1.57140729982592   -1.49689561667056
H         -11.82776621068131   -1.79824608685024   -1.16196409907316
C         -10.36961434469665   -1.05548709402026    0.98718965390115
C          -9.90492523976343   -1.79531803132086    2.07421748101162
C          -8.55299534842408   -2.00642338915413    2.27008864012274
C          -7.61174974102968   -1.46823472689566    1.38503247241160
C          -6.21189977855437   -1.70599578909895    1.53214124337581
C          -5.30918079895567   -1.15792845920434    0.68034979046865
C          -5.71534754648907   -0.30253108740479   -0.39160345737610
C          -4.80044571432050    0.30231017942663   -1.27890679286190
C          -5.27769982235299    1.01557999471490   -2.38337966403563
C          -6.62768465861492    1.20325246647561   -2.59231152201172
C          -7.56385217147031    0.66979047529238   -1.69821467371049
C          -8.96465798433661    0.88882817871502   -1.85997762877652
C          -9.86556187847558    0.34942142184296   -1.00239992754948
C          -9.45079781702162   -0.47622949037656    0.08937300120447
C          -8.05816300824056   -0.68159909545663    0.29160573646548
C          -7.11010998593062   -0.10508332471027   -0.59881695100521
H         -10.62074059842030   -2.23131131482528    2.76232997323478
H          -8.21596298346048   -2.60003984816812    3.11271208267625
H          -5.88236103178984   -2.35084210443735    2.34004942701664
H          -4.25641095748003   -1.38945115787262    0.79396692519528
H          -4.55647312567170    1.44308533732238   -3.07150851262025
H          -6.97134299721513    1.77569935332702   -3.44676331687865
H          -9.29531400261708    1.50859500810112   -2.68665395783908
H         -10.92310922156823    0.54865271760808   -1.13228973011192
C          -3.34003734801210    0.25621759143873   -1.11837664788428
C          -2.67497975414853    0.43250336102629    0.09885369472433
N          -1.35530301086876    0.44934860183715    0.18345806351728
C          -0.64732295532459    0.30208254036329   -0.94510533042320
C          -1.31320009321216    0.17303668640719   -2.16616606225219
N          -2.63185025362691    0.15306908612148   -2.25152106053088
H          -3.22257963695451    0.60224710478839    1.02041077532348
H          -0.77237398422043    0.10073086015154   -3.10431060495352
N           4.48317197526285   -0.40422882840682   -3.80889520856637
C           3.85939082031408   -0.17126507170685   -2.86986490086754
C           3.05090492830247    0.12674684404618   -1.73490716922009
C           1.66634798435718    0.02219285536477   -1.87174624191807
C           0.81469089185191    0.35092183691184   -0.81802101744686
C           1.38694823937743    0.76728998582769    0.39107082505171
C           2.75764750562380    0.87576866612969    0.53062234354307
C           3.61763800763590    0.56617860772888   -0.52470831968850
H           1.27035087898124   -0.31896087975129   -2.82090915673126
H           0.73399419561184    1.01483156088425    1.22083347460838
H           3.17463286647528    1.19748137549248    1.47858270956167
N           7.80325383986715    4.25742900221150    1.41708768791863
C           7.43778114913163    3.29240383998928    0.90742830854172
C           6.96244753972008    2.09864048283325    0.29162605016672
C           5.58564487299574    1.88687680766963    0.20927619508905
C           5.07566300190884    0.73453672564932   -0.38445315417083
C           5.97242979467581   -0.22539738713139   -0.86245951456764
C           7.33860682968819   -0.02283442463752   -0.77505203121188
C           7.86146551710254    1.14167560576843   -0.21151138720445
H           4.91212098595481    2.64861563286619    0.58529177985016
H           5.59716979432789   -1.14012849339621   -1.30561546508275
H           8.01532192292154   -0.76600144485632   -1.18152285350788
C           9.31600028616745    1.39548537681043   -0.21185641878268
C           9.78356365279269    2.56544625681885   -0.81220294069363
C          11.13578650177461    2.83136026206745   -0.90812745811337
C          12.07706438816646    1.92436677858734   -0.40843819461707
C          13.48044443266961    2.17157444270147   -0.48962944065169
C          14.38247147968891    1.27604219285164   -0.01625373756919
C          13.96914415406116    0.04459480514578    0.58267441603290
C          14.88347272337515   -0.91228468973512    1.06891963228754
C          14.41378772661684   -2.02345472184565    1.77358528559984
C          13.06290281676656   -2.24512963471426    1.94882571659871
C          12.12264447136250   -1.35317238470856    1.41832641264571
C          10.71839348890084   -1.56493802706462    1.56251097266662
C           9.81665594665844   -0.69410311234313    1.04484748299208
C          10.23323465251992    0.47653064342474    0.33634172349279
C          11.62721551256722    0.73586269016902    0.22306264831750
C          12.57447061418884   -0.19080459984966    0.74049876289616
H           9.06971737130860    3.26724124885586   -1.22884358067355
H          11.47437894831315    3.74552180562426   -1.38307698881120
H          13.81336602157665    3.10356800100448   -0.93409631539881
H          15.44099934746628    1.50487594001674   -0.06197228570704
H          15.13791036724476   -2.72646243975628    2.17110011342262
H          12.72203456860378   -3.12056074502435    2.49067055550434
H          10.38448214109023   -2.44360015671918    2.10445064593351
H           8.75533421178356   -0.86789095233919    1.18267416902099
C          16.33723794760938   -0.82323244268015    0.85592074575694
C          16.90919262883775   -0.48720581445306   -0.37361262256565
N          18.22261371588145   -0.44556775334960   -0.55048604923653
C          18.98533190248305   -0.75558822321155    0.49456836819256
C          18.42693495129729   -1.14163832884929    1.70339165016564
N          17.11322953027329   -1.18007588883661    1.88620395285249
H          16.29203204129422   -0.27864889810175   -1.24163389449848
H          19.04741859038727   -1.42796674790574    2.54690499531759
H         -19.90992678544215   -0.19923795868351   -0.23234594176098
H          20.06009997522306   -0.70916329923599    0.35369989601231
