   176
       -327.09904790
O         -28.32286708915753    1.04556942298593    3.61113997073187
S         -28.55569343858750    0.67244644723864    2.23384254555653
O         -28.87691132101361    1.70782777298306    1.27800284795852
C         -29.72617342574135   -0.65910539529251    2.13646212858013
C         -31.06295043698836   -0.60950291833468    2.46081161573544
C         -31.80817753510766   -1.77648212386944    2.31065153831449
C         -31.20866281368447   -2.94135739030691    1.84818288939416
C         -29.85708857747654   -2.97502649402087    1.52541089335522
C         -29.09921561315808   -1.81742637730765    1.67096274955393
C         -27.67240636873091   -1.63385534132385    1.38986029479142
C         -26.75819233083505   -2.57327985483790    0.92290166890031
C         -25.43950181512027   -2.19405764506125    0.71897756909938
C         -25.00051877631512   -0.88936869783954    0.96958912631636
C         -25.91920090287825    0.05927322024768    1.44141279662076
C         -27.21974916802388   -0.33634096130727    1.63769510718762
H         -31.51763506041842    0.30531771668758    2.81951646090254
H         -31.80402104324923   -3.84054723944899    1.73649869006499
H         -29.40425759149542   -3.89164287786486    1.16575990981422
H         -27.06532855163846   -3.59324538936521    0.72336315026994
H         -24.72902487818147   -2.93754496543210    0.37558832912810
H         -25.62088617896902    1.08327018885659    1.62860380696711
O         -20.82124957969824   -0.83077578163951   -3.02139137652120
S         -20.43926805784185   -1.32163513410035   -1.71660950946414
O         -20.20469094813026   -2.73816059298273   -1.54908227169349
C         -21.55538464360949   -0.72683494911330   -0.46915530783601
C         -22.87336668511524   -1.08000334985493   -0.31604270726696
C         -23.59231151498236   -0.51978405626295    0.75007047012738
C         -22.94741290826862    0.38056310570880    1.60495635125205
C         -21.61513705893228    0.72654926609380    1.43172966090279
C         -20.89594473508015    0.16432332415118    0.38102674845426
C         -19.48701158595464    0.36287940981239    0.03606585387183
C         -18.54598693794438    1.16432682915712    0.67626778579744
C         -17.23956635674119    1.18222143554831    0.21017280685911
C         -16.83949084966084    0.41624689032370   -0.89013256786787
C         -17.78884043513752   -0.37801918734475   -1.54888803525042
C         -19.07656258775736   -0.38252693192618   -1.07181155275000
H         -23.34497983369651   -1.76232370394088   -1.01202956656822
H         -23.49309017885436    0.80342496680923    2.44092098353698
H         -21.14220108576268    1.42063755863712    2.11655724576348
H         -18.82331874652690    1.76678689879654    1.53330649555838
H         -16.51446365235104    1.81680227823761    0.70709837384970
H         -17.51206182720360   -0.99586270952036   -2.39395373278642
O         -11.57918918389582   -0.76094152116854    0.99630653074733
S         -11.63762932751116    0.41494981122747    0.15783898575158
O         -11.46027115397148    1.71381131993349    0.76853366597735
C         -13.10612844857542    0.39943242269371   -0.84170771408556
C         -14.40173559841308    0.45516539168705   -0.39072794237527
C         -15.43643656032005    0.41059327705565   -1.33606083955472
C         -15.11311681229932    0.32923042262777   -2.69467573112817
C         -13.79681527273867    0.27547103542893   -3.12988489470565
C         -12.76716491007259    0.30038016788525   -2.19330827629608
C         -11.32427090675966    0.20874352116361   -2.42564832933822
C         -10.65272024879108    0.06644041623621   -3.63645558280328
C          -9.26875107514850   -0.04022085902945   -3.63670019852763
C          -8.52846442629593   -0.00061163516728   -2.45185683489663
C          -9.20051130207267    0.14051940068072   -1.22935307109005
C         -10.56985734179437    0.24225645485826   -1.24993851535232
H         -14.61483137567162    0.50144173436699    0.66986931459902
H         -15.90932968750315    0.31967313297027   -3.43056545340451
H         -13.57923672938576    0.21000092621854   -4.18956746093162
H         -11.19964240243762    0.03462059450731   -4.57165299616519
H          -8.74622347759730   -0.14554707923192   -4.58111749315780
H          -8.65635700989727    0.13829599484975   -0.29331947100516
C          -7.06251582557049   -0.16985338379097   -2.47581792376374
C          -6.53548941249429   -1.28416465837770   -3.13015257477312
C          -5.17959046315914   -1.54981786983440   -3.11350220391672
C          -4.29577626839363   -0.69612337248005   -2.44362205140748
C          -2.89736075382631   -0.97127233091001   -2.36212690098892
C          -2.04868311320193   -0.12486473531475   -1.72796240671477
C          -2.51294396405838    1.08825361534683   -1.12836704117109
C          -1.64806925602177    1.99612980720251   -0.48361057850166
C          -2.17496888841092    3.11530230772349    0.16267925951380
C          -3.53118286787403    3.37903142506765    0.14863615250299
C          -4.41641544739592    2.52093763856246   -0.51385129492358
C          -5.81713839393407    2.78824163526172   -0.58224316999774
C          -6.66640198648806    1.94067318875685   -1.21403961694393
C          -6.19871467583333    0.73529398604156   -1.82637360718365
C          -4.80212453457554    0.46757073876974   -1.80835277539668
C          -3.90923819284682    1.35798164149105   -1.14979477261231
H          -7.21081117452544   -1.97035231692126   -3.62985842260036
H          -4.79528288616343   -2.43398356352366   -3.61007947315730
H          -2.52633805754519   -1.88572041709557   -2.81276738505899
H          -0.99577078622203   -0.37260494017248   -1.65564614575716
H          -1.49945061688616    3.80333540315869    0.65925447620310
H          -3.91578494221157    4.26301636964262    0.64507578263380
H          -6.19059805925756    3.69607949296768   -0.12073414927277
H          -7.72203272105901    2.17971178689121   -1.27301284077028
O           2.74247464466194    0.55540087213224    2.93977758952852
S           2.99223091405840    1.69215157159252    2.08171713707648
O           3.05825371637208    3.00863537737553    2.67498627337546
C           1.88458226904789    1.68616479571873    0.69321875897224
C           0.52160340369525    1.85421672105153    0.72929260838816
C          -0.18426566902307    1.80734589290784   -0.48072144862457
C           0.51994038571747    1.62219647483465   -1.67485137700019
C           1.89743590222186    1.45518147815178   -1.69077434715574
C           2.59923883289477    1.47677666718959   -0.48917744923603
C           4.03729877898081    1.30238225767419   -0.27825678036982
C           5.02539546502085    1.05324540160889   -1.22644313760630
C           6.33983576575859    0.89516083952511   -0.81259065039391
C           6.70487548044021    0.98308861158143    0.53557945181947
C           5.71247700629062    1.24357130539410    1.49214037827989
C           4.41660202609064    1.39174438951055    1.06298755412770
H           0.00225569815749    1.99918212458385    1.66837118591012
H          -0.02217348911002    1.63032161183832   -2.61383671344613
H           2.41601736735255    1.31266091942843   -2.63170285186651
H           4.77549201609698    0.97256865642036   -2.27788647672988
H           7.09785098626633    0.67451410549562   -1.55562124184731
H           5.95738881179629    1.34188148208357    2.54222580686863
O          12.10131424923765    2.81571841260453   -0.42342845954282
S          11.93301678419012    1.38298763114675   -0.33742885267442
O          12.02773085600404    0.59607248024290   -1.54566210153828
C          10.44449528917223    0.97724936793490    0.54364507954551
C           9.15698017929746    1.20372180303111    0.12284941340765
C           8.10362833388203    0.78611750614178    0.94966985150010
C           8.40359591339133    0.16378064045843    2.16690702802248
C           9.71100783166351   -0.05024223895915    2.57694914013680
C          10.75788403823073    0.35865794902494    1.75594508488629
C          12.19696585614273    0.21799444902431    1.98316573192643
C          12.84291837562166   -0.33266814281634    3.08606720233878
C          14.22916847132686   -0.37973323711618    3.10563710398551
C          14.99578634958311    0.10288411926139    2.04044811552300
C          14.34997881666424    0.66137323861219    0.92857847988866
C          12.97707328099381    0.70967046844629    0.93337355131711
H           8.96715275468270    1.70692066849569   -0.81687698681441
H           7.59517157420606   -0.18239811207023    2.80083255916680
H           9.90834126427760   -0.54016305133144    3.52323370754064
H          12.27502159410435   -0.72541661586636    3.92139830343124
H          14.72895899046743   -0.82489864743789    3.95883915576005
H          14.91710351279561    1.06130057152605    0.09733295128037
O          19.70675420640628   -0.04884486010541   -1.31767157918805
S          19.65061795179910   -1.02630638241274   -0.25451925092548
O          19.39848623485739   -2.40909687650541   -0.59274458060748
C          18.54110398892070   -0.49468235309756    1.02813469822870
C          17.17498731387252   -0.38464141377920    0.93686400015066
C          16.46549311990151    0.00975721372998    2.07959285532995
C          17.16623170961755    0.29133727647824    3.25629124621581
C          18.54802632906553    0.18684293952092    3.32396064212875
C          19.25608733703006   -0.22031042495926    2.19682545931942
C          20.69821480741529   -0.43331129576254    2.06135295767428
C          21.68956475147102   -0.26291255655090    3.02346473184162
C          23.00786019081911   -0.54744031672059    2.69675228722186
C          23.37062731357091   -0.99893617771469    1.42400654223308
C          22.37406876516342   -1.17586450953171    0.45311808610494
C          21.07583969766610   -0.88548690914973    0.79451220005989
H          16.65896230670661   -0.62477368490305    0.01560513066636
H          16.61856153217299    0.61547229270132    4.13437394210117
H          19.06415985553152    0.41577542057056    4.24905650515469
H          21.44038851494492    0.08762553996257    4.01841509389960
H          23.78026098314197   -0.40432322045861    3.44445209323576
H          22.61709988949847   -1.55915086152386   -0.52981523005057
C          24.77398027015398   -1.34129735160661    1.12596350795062
C          25.44436973691592   -2.20096477290205    1.99829655585163
C          26.73506689275017   -2.62339483873814    1.74233897228116
C          27.40896166713434   -2.19579468694396    0.59281265194586
C          28.73305100154761   -2.63818443915923    0.28495513396499
C          29.37358494471907   -2.21484101201859   -0.83262744172213
C          28.75004774968410   -1.30358805713235   -1.74159878647324
C          29.39477615878519   -0.85412176554450   -2.89946236670960
C          28.76594729940752    0.03319039754308   -3.75933926831417
C          27.48748742430010    0.49450220966406   -3.48712491538616
C          26.80613816309771    0.06823947765321   -2.34145637046703
C          25.49582688237942    0.53637083242651   -2.01639629931085
C          24.84557960139394    0.10047828690997   -0.90894455785613
C          25.43461767741857   -0.85523416049453   -0.02092577540077
C          26.75851743234806   -1.29661469487907   -0.29277938230889
C          27.43685950683587   -0.84434232908390   -1.45660056871307
H          24.92588860801198   -2.56791138144305    2.87781305263308
H          27.22708999430508   -3.30335792809915    2.42923046947929
H          29.21511877241353   -3.32726747654871    0.97060535774556
H          30.37745786902719   -2.55917275892012   -1.05835462451647
H          29.28009875021542    0.37115165724573   -4.65242889958086
H          27.00601468726563    1.19175870164904   -4.16418340566012
H          25.02963677391041    1.26055639527833   -2.67605757934583
H          23.86248036634685    0.49257814799871   -0.67449413642030
H         -32.86351038938640   -1.77383065841002    2.55672868679070
H          30.39608039606588   -1.20722049241566   -3.12145643584539
