    78
       -142.92141290
N         -12.70074524101905   -1.00552513707471    2.68212804570367
C         -13.11443520847332   -0.70246280609573    1.65163106069003
C         -13.65306550911188   -0.31111005897395    0.39249985471023
C         -15.04133651353226   -0.22833332660885    0.25126266421392
C         -15.59850159574432    0.18586812583442   -0.94637374663600
C         -14.77386784053716    0.52775294250090   -2.01093782945817
C         -13.39608633341325    0.45292755713471   -1.87752267549696
C         -12.81396514213931    0.02980523664222   -0.68313886371591
H         -15.67527408282418   -0.48912722724431    1.09073572212564
H         -15.20639058151662    0.85236610541613   -2.95043230803625
H         -12.75945401194367    0.70708507904646   -2.71768822284064
N          -8.38722924793585   -3.45658895157185    1.00454916810235
C          -8.78748227933911   -2.45243414262431    0.60848230217106
C          -9.33589040828744   -1.24299574167900    0.09330304306661
C         -10.72657154689048   -1.16548289978064   -0.01111182439175
C         -11.34500472898647   -0.04921564068969   -0.56673390514327
C         -10.54319614509499    0.99388237150264   -1.04054396982775
C          -9.16763782069470    0.92585329362620   -0.93407495037217
C          -8.53307682611495   -0.17844274780398   -0.35710661358218
H         -11.32250842787783   -2.00409412933990    0.32899654045895
H         -11.00523745532531    1.87287735057472   -1.47573506345085
H          -8.55379826963008    1.74301748215611   -1.29689231944294
C          -7.06705194452076   -0.16282992823388   -0.26646328763340
C          -6.33180579050150   -0.82835074628468    0.71889303636208
N          -5.01084153437573   -0.77650440597265    0.76464279113278
C          -4.38683327599575   -0.05167313237135   -0.17129923178088
C          -5.12020770120591    0.64711131762472   -1.13364436796582
N          -6.43901469600630    0.59489852058198   -1.17867236616525
H          -6.82106675836120   -1.39992566734512    1.49930326385159
H          -4.61432250078084    1.25570356761336   -1.87672048777540
C          -2.92798478091833   -0.01501416539829   -0.13366298731121
C          -2.19370061399476   -0.69813729827485    0.83981167815807
N          -0.87452617651324   -0.66522325016230    0.86827076983507
C          -0.24161689823415    0.05067121871365   -0.07377026981964
C          -0.98187436594582    0.73303740593271   -1.04425830434368
N          -2.30396631356597    0.70238238369027   -1.07584636451653
H          -2.70100968814685   -1.27836556765704    1.60416800084798
H          -0.50015642185177    1.31914147096141   -1.82020797946517
N           4.30649430870659   -2.24362756397399    2.88022734887616
C           3.84515185431997   -1.55656290888405    2.08054844188884
C           3.25108979031237   -0.72973559663846    1.08318675913147
C           1.86268175158064   -0.70322557211970    0.97645633364300
C           1.22533591690906    0.05551330238855   -0.00842668205041
C           2.02112065434747    0.78792162897069   -0.89632246722613
C           3.40066608215916    0.76158035074696   -0.79697890837632
C           4.04420049083057    0.01389611404888    0.18940409083601
H           1.26217787535806   -1.28407968578976    1.66768663365725
H           1.56859898948852    1.39239344801027   -1.67347738138368
H           3.99356901524117    1.35203594172094   -1.48680695305023
N           8.55210159987956    0.67548209213595    3.89940712696195
C           8.13747150013880    0.45628916045499    2.84799453140675
C           7.56204539167523    0.22034004814947    1.56647076181883
C           6.16770815119561    0.17608658575254    1.49387987710605
C           5.51528305863457    0.02360783532703    0.27358089353085
C           6.28668782672039   -0.08126367349884   -0.88874240307240
C           7.66551433521899   -0.04637137976263   -0.82197267143399
C           8.33547619781318    0.09844188488056    0.39696512565320
H           5.59486459209029    0.29223989617867    2.40626753004238
H           5.79933649066639   -0.20942972809576   -1.84866268159355
H           8.25458404657077   -0.13167785067834   -1.72856580914246
C           9.80373250414362    0.13990641922531    0.37514770286697
C          10.62351703544706   -0.25334253573065    1.43622312900996
N          11.94313619631737   -0.18317425359910    1.36710677095888
C          12.48058700399446    0.27209519862785    0.23030246110757
C          11.66613739696922    0.61830071242770   -0.85051215284351
N          10.34922574676181    0.55293079953342   -0.77952475207285
H          10.20725643045392   -0.64919403186229    2.35550187386591
H          12.10463444304801    0.95788932977351   -1.78370196098545
C          13.93753152554035    0.38105080898017    0.16517796748837
C          14.75071393445664    0.02745037510833    1.24390766784606
N          16.07043890208757    0.12934217491080    1.18618076427969
C          16.58999464455713    0.58686070095992    0.04926326480108
C          15.78822703672182    0.94048045341284   -1.02671563038829
N          14.46603953703144    0.83994946630378   -0.97498992741850
H          14.31168184842394   -0.34332171913444    2.16460651979747
H          16.21643966688080    1.31372023410339   -1.95177515838249
H         -16.67562946041953    0.24511727890453   -1.05069786939100
H          17.67061036508223    0.67173980037395    0.00043982997902
