   124
       -238.46013735
O         -20.08715865342396   -0.90732693899050    4.47274274097637
S         -20.30648551614520    0.34068623028121    3.77699533228711
O         -20.28233063651318    1.57233126480869    4.53442765742005
C         -21.76784193663745    0.25209328003114    2.77286957146374
C         -23.06660493385321    0.13773007090830    3.21391395269630
C         -24.07320418245218    0.08721653878127    2.25272800699280
C         -23.76063971236304    0.15201310547989    0.90068840487344
C         -22.44338027845351    0.26640415333803    0.47181932251518
C         -21.42649966067398    0.31709298564912    1.41992600745095
C         -19.98369367784734    0.43437942471230    1.18884241223064
C         -19.30883188130853    0.51439611426621   -0.02558853847725
C         -17.92533038503952    0.61871380390124   -0.02785630574146
C         -17.18878369632214    0.65087018386456    1.16062756443263
C         -17.86473961811135    0.57087085988046    2.38607429529413
C         -19.23377154571651    0.46307643191666    2.36634173720205
H         -23.29536155260895    0.08866806119357    4.27093562023703
H         -24.55707958479807    0.11265337636776    0.16614338215649
H         -22.21590434124658    0.31560359979144   -0.58663203573002
H         -19.85169061230626    0.49838287045306   -0.96338984844461
H         -17.40570326476111    0.69766447763131   -0.97618406518092
H         -17.32385801218721    0.57102027955738    3.32411870815718
O         -12.45140859783844   -1.98157784665150   -0.75158559941871
S         -12.46024713012112   -0.54904137818479   -0.94250800399990
O         -12.62907049999725   -0.02506672745329   -2.27896191953968
C         -13.61161871853587    0.21947951331134    0.17123686812317
C         -14.97821919554691    0.08400856718857    0.15826643496573
C         -15.72126344811871    0.76699033981087    1.13130294868316
C         -15.05115125082894    1.55595678858746    2.07218121091114
C         -13.67016263875304    1.68443894297328    2.06488911341270
C         -12.92856668763818    1.00758739450328    1.10047409932732
C         -11.47723432529844    0.99650728661980    0.91663414928291
C         -10.51153772420160    1.66953993345759    1.65908722774396
C          -9.17209779115568    1.51606721421286    1.33291889216356
C          -8.76202104760890    0.69810703897460    0.27389942131168
C          -9.73673745972857    0.03098422052339   -0.48758125900484
C         -11.05527142550804    0.19531213206156   -0.14894615128871
H         -15.46391495259224   -0.55233478799792   -0.57083806458202
H         -15.62552769734138    2.09753446616115    2.81533624007543
H         -13.18015449074850    2.30767161844679    2.80373617037056
H         -10.79651359421519    2.30948400552436    2.48602099735555
H          -8.43497206547847    2.05622898362392    1.91570865386172
H          -9.43852093602201   -0.59942309709705   -1.31643869025417
C          -7.34918386366073    0.50244039639991   -0.06861339622769
C          -6.28809082079558    0.86646835155011    0.76493304105760
N          -5.02801205759347    0.66281261854465    0.42625129199562
C          -4.77291745775466    0.08408408171680   -0.75537773041179
C          -5.83508653133318   -0.29843112724042   -1.57983332471958
N          -7.09579721866594   -0.09187168147490   -1.24255535318522
H          -6.45683374876216    1.32169620947049    1.73554796439724
H          -5.66771335330731   -0.79141580747396   -2.53198062514020
N          -0.88359522680672   -1.50603605689653   -4.95043531281958
C          -1.17185670547198   -1.18358589541494   -3.88383927697734
C          -1.56020706681719   -0.77555720531226   -2.57476928066869
C          -2.91698763203430   -0.56027988079990   -2.32607101187049
C          -3.35629291879984   -0.13095968639935   -1.07433553561440
C          -2.39797646137755    0.09918131499708   -0.07817471700031
C          -1.05501755085087   -0.10782901378182   -0.32027458804912
C          -0.60621454775028   -0.55739228309753   -1.56433709330760
H          -3.61917692165900   -0.72669168141681   -3.13440117378257
H          -2.72742572625970    0.43813439426712    0.89756601965385
H          -0.33797538309585    0.05643807701963    0.47599923660867
O           4.44604125584006    0.82450501488641    0.65025888207019
S           4.45767460066259    0.80251749576662   -0.79502975476409
O           4.55622451883917    2.05333362600406   -1.51048966613786
C           3.10027526284677   -0.16646269347901   -1.40501484175720
C           1.76446999569320    0.11135245458007   -1.25098820538294
C           0.83205360836730   -0.79669407899178   -1.77357460538161
C           1.29268174593203   -1.93707884386068   -2.43868701814735
C           2.64745989820955   -2.19922974691190   -2.58440653706945
C           3.57592006232662   -1.30832879791729   -2.05383267990194
C           5.03626945268269   -1.41611163630911   -2.04347922114617
C           5.82892497860329   -2.43424437328885   -2.56566364147408
C           7.20449897719314   -2.37963692824018   -2.39349558473813
C           7.81944909990645   -1.32308020330541   -1.71400846816428
C           7.02750581559392   -0.28068015812394   -1.21173415088073
C           5.66730984069658   -0.35685726798875   -1.38631928957436
H           1.44179173442876    1.01439786650199   -0.74815999575115
H           0.57600408143045   -2.64994588791249   -2.82928812327010
H           2.97162666188765   -3.09802173363093   -3.09564809606610
H           5.38196548044967   -3.26800627965499   -3.09435864091765
H           7.81747641229493   -3.17295568485412   -2.80676613156261
H           7.47072938460514    0.54653861302951   -0.67157066431608
O          12.13728394173185    2.17418667667772   -0.30161922935816
S          12.47954421224025    1.21054261668493   -1.32228109899104
O          12.67872062511801    1.67073846571497   -2.67801701223798
C          11.34869918328689   -0.16039341822236   -1.29635744577277
C          10.00194905604438   -0.11882051983915   -1.56380398550000
C           9.27486276291877   -1.31529971595603   -1.48799587783971
C           9.94248962908833   -2.49942830161086   -1.15777641427137
C          11.30200352988565   -2.51908653262581   -0.88400129503972
C          12.02527951521863   -1.33129085818398   -0.94452425121169
C          13.44447314683845   -1.12134036200630   -0.65755874092694
C          14.39151104408889   -2.05849954669194   -0.25090602378609
C          15.68557425794662   -1.64065586258486    0.00917599890653
C          16.07728890534122   -0.30058674292290   -0.12324498848674
C          15.12795337394700    0.64191349327343   -0.54738998384362
C          13.84961923800824    0.20784277029829   -0.79992457819714
H           9.52043865119464    0.81153644901846   -1.83787806797211
H           9.37868873703992   -3.42278562840288   -1.08399241958457
H          11.78746084472631   -3.45022999966734   -0.61601652593167
H          14.12236610160974   -3.10141759863437   -0.13078941477828
H          16.42681129516961   -2.36325674896700    0.33321926964567
H          15.37796337859454    1.68730343299282   -0.67486862171899
C          17.45934624753955    0.06938352213363    0.20150049915072
C          17.94366060271529    1.38056547697694    0.19767765595744
N          19.19267613883403    1.66841548583712    0.51661258545464
C          20.01316962364497    0.66397104436237    0.85327259181765
C          19.52863061989333   -0.64731746951077    0.85619683976218
N          18.27968728268564   -0.93640040565652    0.53726182959602
H          17.31037936498664    2.22209774515133   -0.06320755445633
H          20.15906808917318   -1.48826290378827    1.12638773550088
N          25.44465300606996   -1.25782709358820    2.44117769596362
C          24.64708067106123   -0.46993033446900    2.18305879993490
C          23.65777102636545    0.50553051269941    1.86489274679946
C          22.36754943182254    0.09745540578963    1.52296086652920
C          21.38754927743364    1.04058434887512    1.21153062344416
C          21.72860009863514    2.39908090246198    1.24650756524092
C          23.00849636320390    2.80380316990165    1.58472232423433
C          23.97969385970062    1.86514760768392    1.89655873584474
H          22.14851648890755   -0.96343367601769    1.50330736916801
H          20.97009747707002    3.13504776105337    1.00434236406435
H          23.25223592214892    3.85984461163460    1.60674504473702
H         -25.10710912617377   -0.00298569820855    2.56444695058045
H          24.98287978862210    2.17514725492710    2.16337807571113
