   130
       -245.80544068
O          20.99225482591026   -2.61188187902188    1.31552329704973
S          20.93408217235872   -1.72905862553156    0.17269949328706
O          20.68800474144366   -2.29505952100827   -1.13357203297586
C          22.35260135724432   -0.66234895559522    0.13432908629787
C          23.65928761386084   -1.03473823184896   -0.08518825044525
C          24.62685565337521   -0.03299141821092   -0.07754036068688
C          24.26907404445710    1.29081096712355    0.14496292738080
C          22.94454481839563    1.65022290782874    0.36573574213101
C          21.96664061132421    0.66064244529304    0.36139739785658
C          20.52394759688539    0.81786272252942    0.56901044231248
C          19.81410248766080    1.98661876450849    0.82651173191310
C          18.43883750050763    1.92110734622833    0.99764640345632
C          17.74405724422564    0.71055269363288    0.91069721794156
C          18.45467411541361   -0.46877579162506    0.64771906872262
C          19.81665857090219   -0.38377804689198    0.48985811570366
H          23.92384902823812   -2.07029729692724   -0.25765753129179
H          25.03521639271502    2.05796251266012    0.14640491131903
H          22.68147351310679    2.68753523369237    0.53724067431833
H          20.32268925490991    2.94144635788196    0.89152434881029
H          17.88767917891196    2.83679851102401    1.18135621239733
H          17.94886183642650   -1.42460566246195    0.59126410891179
O          13.04116349839087   -2.45198047312272   -0.23027922644385
S          12.92452162916123   -1.03557613525433   -0.48703949240529
O          12.89373687870330   -0.57438101499938   -1.85656272338198
C          14.13181661560425   -0.12494758413353    0.44631518252059
C          15.49313440458459   -0.14293475926136    0.26408823312314
C          16.28194248661930    0.67527717317514    1.08504779047740
C          15.66264861114721    1.46257170963451    2.06103540392770
C          14.28635403765808    1.46029573543550    2.23483400488592
C          13.49818232985690    0.66048687046876    1.41263769770367
C          12.03970682580576    0.53329307533432    1.40293309242572
C          11.11172877787318    1.17786931622847    2.21556405424775
C           9.75869760905192    0.94059544852154    2.02089969209772
C           9.29883136608123    0.06828139448420    1.02891406709989
C          10.23164351491651   -0.59335125622650    0.21773682514737
C          11.56606469563832   -0.34433173468839    0.42497169558228
H          15.94028887739622   -0.75350744756006   -0.51039033717137
H          16.27372618740969    2.07892239070374    2.71106790587319
H          13.83578493707860    2.07887139583712    3.00225683857213
H          11.43479956394342    1.86698541700579    2.98714564478179
H           9.04054322828574    1.46678769274650    2.63990948153490
H           9.91353185281061   -1.29289736470089   -0.54507259124968
N           4.06171921460291   -0.37708792292466    3.75059227320339
C           4.73587688275511   -0.34095267256795    2.81872707315658
C           5.59557928219813   -0.30068442304922    1.68283557844796
C           6.96735109884893   -0.15096212714771    1.88941681858549
C           7.85529223505396   -0.13154182036562    0.81554806981653
C           7.34437155923562   -0.28742160080009   -0.47683154227797
C           5.98591402299800   -0.44265346593268   -0.68602678018047
C           5.08651887976350   -0.44123017605779    0.38001940848649
H           7.33680818630758   -0.06763301268619    2.90498468358433
H           8.01274915656470   -0.25965435544612   -1.32968186186393
H           5.60955697727138   -0.53791367511820   -1.69845649230434
N           1.08448473975603   -3.47840939125408   -2.70630573762140
C           1.39688653669822   -2.63830837516215   -1.98420075132631
C           1.81641204996205   -1.61429591976190   -1.08644973084058
C           3.17498405911492   -1.51872238720739   -0.78344678324964
C           3.64087974929468   -0.56524209384665    0.11836155594410
C           2.71858316843213    0.28668052273075    0.73115743000829
C           1.37128741166555    0.20008264576802    0.42931241950060
C           0.89384554250811   -0.73583655115799   -0.48917224918142
H           3.86772541353093   -2.21133901917655   -1.24754708133766
H           3.06148208781139    1.04166014700212    1.42861236565809
H           0.67789509423206    0.89295480857326    0.89232694489115
O          -4.39047777578507   -1.49720398007133    1.75231421505390
S          -4.22681535053004   -0.36200395718738    0.87480328703325
O          -4.20691482603753    0.96556871228798    1.44723150945974
C          -2.82714769216870   -0.58790542659885   -0.19687691899337
C          -1.50392472156991   -0.60349829848854    0.17159744208049
C          -0.53830445665504   -0.76407131688391   -0.83259270592814
C          -0.95195638768134   -0.90321407716868   -2.16103137405806
C          -2.29329573374085   -0.88795326352274   -2.51242153269041
C          -3.25411079354655   -0.72319780503919   -1.51976471919205
C          -4.70664610582145   -0.63844009540808   -1.67534927328368
C          -5.44761546651661   -0.71205265348708   -2.85068849722416
C          -6.82456214601672   -0.55857391670403   -2.79282918251672
C          -7.48990529785201   -0.33841191640029   -1.58233246400519
C          -6.74965990592400   -0.28860541591864   -0.39267027565802
C          -5.38582105239274   -0.43539935136222   -0.47157707524849
H          -1.21676438395213   -0.50720230555988    1.21121087908367
H          -0.20715378556476   -1.00328245964262   -2.94167713857921
H          -2.58162477526881   -0.99223027530296   -3.55176628081661
H          -4.96045330236648   -0.88142077235252   -3.80374006892619
H          -7.39933079347945   -0.62510966094954   -3.70985276458570
H          -7.23392271535722   -0.11024749588323    0.55935513302816
O         -12.11728681116556   -0.46331702964541    1.86655399741333
S         -12.30379298501271   -1.07204247624747    0.56990050096884
O         -12.41079384259389   -2.51003407862715    0.48208075420637
C         -11.09324714849604   -0.46868933963810   -0.58426978595040
C          -9.73753306372724   -0.68942560654097   -0.54583755453146
C          -8.94881243000418   -0.13819266721364   -1.56542522764979
C          -9.56210970599033    0.61598163884499   -2.57140836117999
C         -10.93134755790539    0.83375890514091   -2.58835903524917
C         -11.71872644844608    0.28326048414734   -1.58170442235935
C         -13.16876326322310    0.38676149024617   -1.41352265058569
C         -14.07983149412191    1.06668083970773   -2.21598832174806
C         -15.42491030469962    1.04902408853691   -1.87792013631378
C         -15.89213665985521    0.36176036126353   -0.75315153744712
C         -14.97787457220826   -0.32884227290579    0.05475879483617
C         -13.64933082886631   -0.29559752140847   -0.29347994173796
H          -9.29535308561287   -1.29008650140631    0.23921244770050
H          -8.95000630375522    1.06154854639831   -3.34772812241171
H         -11.37605455713001    1.42823435460083   -3.37786319110365
H         -13.74916854708747    1.60443151552559   -3.09695806510635
H         -16.13312040678861    1.56687042683332   -2.51519560375632
H         -15.30508601712766   -0.85761106628344    0.94132227866920
N         -20.38294099600240   -3.01206403795257    1.09850998410153
C         -19.91654227514631   -2.01230661907342    0.77132916557195
C         -19.31766810448024   -0.79213598054059    0.34218778981767
C         -17.95340195366179   -0.78752709644643    0.04862357740372
C         -17.32868944697289    0.36382353297086   -0.42580558036583
C         -18.09584207960924    1.51988293444255   -0.59666861945028
C         -19.44824865253157    1.52015253506040   -0.30453638283023
C         -20.08533541018813    0.37292708319812    0.16754738475258
H         -17.38761722182392   -1.70418231511172    0.16887261588783
H         -17.62547437609846    2.43403829890608   -0.94078381798407
H         -20.01957595034816    2.43363568590252   -0.42704682361406
N         -24.32849793522790   -1.08440337209112    4.10024581833618
C         -23.91228077048754   -0.64985237502737    3.11991496545944
C         -23.40496260286194   -0.09992749271947    1.90655656843389
C         -22.03596278911725   -0.14591302229438    1.63905704444696
C         -21.53145718425020    0.40105976508402    0.46138725383162
C         -22.41296339101827    0.99814191391268   -0.44361283868760
C         -23.77409425258346    1.03724733718801   -0.18059224936381
C         -24.27742643537510    0.49215768511072    0.98925352461553
H         -21.36691086715038   -0.59535353110207    2.36292071378163
H         -22.03145443613366    1.41517599933066   -1.36893882129116
H         -24.44717063814692    1.49659502694971   -0.89560341662910
H          25.66572005339559   -0.29033489711137   -0.24715437668711
H         -25.34005261701250    0.52260056442074    1.19816565489278
