   162
       -261.84773610
C          23.46401440094195    0.39401641818380   -0.87140671045539
C          23.54666638650684   -0.81132211544548   -0.19148924524735
C          22.41560248189742   -1.38854559010637    0.36505831078464
C          21.16874819982998   -0.76339274778561    0.25286274363619
C          19.97876980774862   -1.33101269303220    0.80669793733224
C          18.78031186312307   -0.70776119177533    0.68967991503120
C          18.65264309839250    0.54527207118759    0.00974914127732
C          17.41694052560019    1.20341121829027   -0.13176334347733
C          17.34895118357963    2.40013762652483   -0.84609141983810
C          18.47866888922420    2.96804070508559   -1.40668943346799
C          19.72658533861232    2.34863356401279   -1.27683258681291
C          20.91523782595107    2.91194200819561   -1.83746125701758
C          22.11514120200937    2.29371449759817   -1.70849343319554
C          22.23641966527725    1.05156036764793   -1.00945887339276
C          21.07191629381403    0.47124535727354   -0.44066261518532
C          19.81551675460833    1.12174087451207   -0.56831936300109
H          24.50577344442097   -1.30847087296280   -0.09471784048829
H          22.49260210185189   -2.33317696949764    0.89272261869438
H          20.05578747673256   -2.28207150050461    1.32345045321259
H          17.88753325517718   -1.16012685873935    1.10763474950156
H          16.39117102189321    2.90012851761966   -0.94285897719920
H          18.39994411949307    3.90429836250221   -1.94872509451485
H          20.83359309591330    3.85261610269242   -2.37222918467256
H          23.01062669673891    2.73104552554172   -2.13783225428299
C          16.18133643102075    0.67616632324291    0.49183822216274
C          16.07883567724510    0.64098469501160    1.88229349410018
C          14.91327716655842    0.23140363414490    2.50502086925904
C          13.80077579043342   -0.15879320698027    1.75106943308865
C          12.57608622368899   -0.57120787666037    2.36147161917290
C          11.50437450113481   -0.93500410611481    1.61476714145607
C          11.55676388975748   -0.92912985507300    0.18435063873837
C          10.45652945204594   -1.30397424244374   -0.60989651097958
C          10.59089912993597   -1.35620796164252   -1.99698523610687
C          11.77486718398847   -1.00251002594588   -2.61756854553389
C          12.87646566579020   -0.58466111398726   -1.86287280290790
C          14.10768435280596   -0.19389520210858   -2.47285585978530
C          15.16323393177809    0.21550333038208   -1.72702448700558
C          15.09247499874297    0.26251785435339   -0.29885815337232
C          13.89016173574529   -0.15237278054302    0.33461608123157
C          12.77405332229101   -0.55669486751804   -0.44754017839684
H          16.92401799137560    0.96398107876021    2.48056241369866
H          14.85404966701145    0.22203563226610    3.58803040834966
H          12.52269417406955   -0.58651855190585    3.44513446266169
H          10.58432431121637   -1.24905708032345    2.09526791385963
H           9.73924774459672   -1.66007995989244   -2.59628359598322
H          11.85134546502090   -1.03848409450373   -3.69887442257727
H          14.18015795972827   -0.23255861732470   -3.55476360855717
H          16.09144118650328    0.50376972354215   -2.20791618767245
C           9.14088363966246   -1.65591858531336   -0.02659488543019
C           8.66419178501552   -2.95572034318596   -0.19036986314720
C           7.42002448685456   -3.32933470731872    0.28388985240856
C           6.58792672758419   -2.39489689122572    0.91021196856655
C           5.29285908274157   -2.74273263023611    1.40080902030442
C           4.46876577778153   -1.80797225213545    1.93697050251158
C           4.86364956487580   -0.43719900723036    2.04168199879011
C           4.00563235904835    0.56900664455545    2.53298490159800
C           4.51326983265784    1.84719686574311    2.78408913313993
C           5.81440401530276    2.17754416568608    2.46411640551277
C           6.65773784928396    1.23710001426733    1.85757149656945
C           7.96777971892068    1.57737219823362    1.40382446478547
C           8.76190708269340    0.66271091322611    0.79364136048141
C           8.33831894647257   -0.69246547256866    0.61663365629837
C           7.04309671353933   -1.06038832609138    1.07206645529513
C           6.19074618867287   -0.08966025695032    1.66717685941815
H           9.29260884370699   -3.68643718263825   -0.68809277738845
H           7.07701213855787   -4.35076101697228    0.15972284886869
H           4.97877086430496   -3.77900330942483    1.33337960399115
H           3.49993159639706   -2.10201937236582    2.32474705822121
H           3.84626353970862    2.59219106086067    3.20462967251817
H           6.18037606398720    3.18203729381377    2.64691763673123
H           8.30965315928994    2.59810736115378    1.54007304795761
H           9.74152737404058    0.95071616788489    0.42963043884344
C           2.55827198163173    0.37635946258823    2.68718204610552
C           1.80221502640276   -0.31221401175661    1.73516406201127
N           0.48457490387372   -0.39359822892432    1.80332926111193
C          -0.13012834729445    0.22035314456215    2.82315541518908
C           0.62593892222206    0.92274737102907    3.76584812189802
N           1.94480653599073    1.00972537579321    3.69578421411528
H           2.27284901704454   -0.77649118198183    0.87425355251503
H           0.14476244606912    1.45589430046282    4.58028891120468
C          -1.59732457131459    0.14227257170613    2.89058432968883
C          -2.21104466579465   -0.03780972465962    4.13291534838546
C          -3.58149922006251   -0.16749361736004    4.24855633209983
C          -4.40013907606408   -0.12850426308110    3.11322584791695
C          -5.81744604194085   -0.28202008028739    3.19811782046146
C          -6.59670052519921   -0.26412762852176    2.08784107074148
C          -6.03272587811213   -0.08553824792041    0.78586131177798
C          -6.82094743646604   -0.07631870398276   -0.38168721277791
C          -6.22040734791667    0.17079184527543   -1.61853143016683
C          -4.86110056897679    0.38997123499805   -1.72613996394274
C          -4.04430454213169    0.35721825807478   -0.59036382821029
C          -2.63569628317485    0.56564192130142   -0.66951808045183
C          -1.85101851782797    0.50298719561523    0.43427543511406
C          -2.39628595169160    0.22960243916883    1.72732110714583
C          -3.80650956085035    0.07719661521186    1.84037552063054
C          -4.62923407552038    0.11898032842789    0.68002162752676
H          -1.59412540388149   -0.10894531447193    5.02260051509843
H          -4.03022223950194   -0.31733283388409    5.22459423131684
H          -6.26172336361755   -0.41383774441511    4.17928126873723
H          -7.67221318565571   -0.37254823264360    2.17545415594651
H          -6.83548712430046    0.16189440467921   -2.51191434671153
H          -4.41692386406145    0.57404303776528   -2.69832959667963
H          -2.20094592488152    0.77696138098448   -1.64082113066258
H          -0.78501101749750    0.66691708139341    0.34129857026912
C          -8.26310393388425   -0.39927073324695   -0.36796593352128
C          -8.67622900381823   -1.64777542107510    0.09967978782107
C          -9.99296245291645   -2.05531982017586   -0.01064725364175
C         -10.94852450536770   -1.22657435880369   -0.60968773502815
C         -12.29830842035597   -1.64811775962147   -0.81115515808563
C         -13.20723263968579   -0.83872156034600   -1.40871145792577
C         -12.86216056565428    0.48234325619535   -1.83867033750677
C         -13.79199286607309    1.34175701313509   -2.45772378285243
C         -13.38047088129909    2.59625042162209   -2.90726409697590
C         -12.08051889546810    3.03219338652621   -2.72954740106116
C         -11.13299361071360    2.21106089654029   -2.10805937127273
C          -9.78366648320887    2.63268420516327   -1.90413669549408
C          -8.86649246926322    1.80864168125707   -1.33981298704917
C          -9.21100464492574    0.48410472072833   -0.92306828689387
C         -10.56121616625357    0.06276918508928   -1.05858299983993
C         -11.52096347561840    0.91980704596371   -1.66464955351828
H          -7.93933916102902   -2.32343061670454    0.52040153844958
H         -10.28589456211648   -3.03756261133165    0.34412534289812
H         -12.57907915186317   -2.64463934506906   -0.48657138577721
H         -14.21992846787035   -1.18892435548244   -1.57305817819907
H         -14.10491727307347    3.24526085790132   -3.38763563074913
H         -11.78812125758389    4.01794643698576   -3.07482256568824
H          -9.50585006696908    3.63471684699260   -2.21398627538568
H          -7.84946287217865    2.15120528069591   -1.18457496315226
C         -15.19664628417062    0.93564902517541   -2.68800122432327
C         -15.65523943362842    0.84780593148875   -4.00221369948611
C         -16.95119940598836    0.45805704872831   -4.28583025232708
C         -17.83960717480426    0.13592569067855   -3.25373932453534
C         -19.18596921249691   -0.26373961400072   -3.51025648871946
C         -20.02736049390659   -0.59575236295296   -2.49950685181018
C         -19.60549715283631   -0.56054893872617   -1.13290171970055
C         -20.44941842465960   -0.92239863667748   -0.06299810442871
C         -20.02565988283374   -0.71914899981899    1.25269041394426
C         -18.76492468768211   -0.23326954139566    1.53478578556695
C         -17.87114433300498    0.06616821834434    0.49902703294659
C         -16.54939641412664    0.54078069283426    0.75766421975327
C         -15.69118372275414    0.82066694293896   -0.25404889174795
C         -16.07642758260830    0.65964589229511   -1.62255544405673
C         -17.40325877562292    0.23692543343113   -1.90716873249432
C         -18.29508058980139   -0.08560921404463   -0.84714315978710
H         -14.97136966254130    1.07407711369737   -4.81327388762087
H         -17.28352760935088    0.39204339569295   -5.31622381690296
H         -19.52778877593179   -0.28843228087184   -4.53966375655713
H         -21.05363239658330   -0.86526955194412   -2.72135252326908
H         -20.70691190837353   -0.97017686558698    2.05866514480237
H         -18.45476837330111   -0.09399323741444    2.56470563002597
H         -16.24476221421745    0.67430455953639    1.79039759620871
H         -14.69363542849187    1.18570447776096   -0.03711392901522
C         -21.76924794713030   -1.54474729022928   -0.25465530568187
C         -21.99440342110337   -2.57714417038221   -1.16882412480652
N         -23.18263930451521   -3.14911890636874   -1.30552304777336
C         -24.16094917944463   -2.70899213248431   -0.51819347097213
C         -23.93430471509496   -1.72161907104614    0.42799726724771
N         -22.74757251945529   -1.14318864517538    0.56508174894231
H         -21.18835540448273   -2.97001675856506   -1.78020857276690
H         -24.72280280973288   -1.38472297185915    1.09384692896257
H          24.35570113724567    0.83580002730860   -1.30324005204668
H         -25.13603660214674   -3.16925680563892   -0.63944269721905
