   130
       -217.29947840
C          20.78911913588634   -0.78194994964755    0.28733180338457
C          20.59486479117216    0.22662887707913    1.21840072107110
C          19.31545605304879    0.64274216206288    1.55247303365236
C          18.19644834026728    0.04438650180492    0.96250379097624
C          16.86322580207018    0.46298728200193    1.26009156734932
C          15.79039898747845   -0.14756679338268    0.69778338117847
C          15.94014934957359   -1.24205275154115   -0.21206411388818
C          14.84374176540296   -1.91568252342407   -0.78939145641276
C          15.06606919344749   -2.87001922154713   -1.78636003272720
C          16.34330510675543   -3.22778152661808   -2.16827198894044
C          17.45890913277415   -2.63819661727887   -1.56006708694788
C          18.79381421709354   -3.02230625522386   -1.89579480321437
C          19.86473235261667   -2.43759109156081   -1.30333141210542
C          19.69747071860961   -1.40294615735704   -0.33063744474924
C          18.38153849248858   -0.99533226685262    0.01438542691682
C          17.25776262965122   -1.62415198949510   -0.58662570460650
H          21.45246107597938    0.69713899275539    1.68701571610482
H          19.17501028696046    1.43823173738924    2.27641063183676
H          16.72432814492014    1.29415469879977    1.94357324067933
H          14.79255107961030    0.21591082870450    0.91570905537192
H          14.20588341386055   -3.34673275233279   -2.24419908977439
H          16.48892317763332   -3.98267832804149   -2.93350878978528
H          18.93113741773982   -3.80119904178904   -2.63869967331079
H          20.87370269621964   -2.74159701074141   -1.56203134672196
C          13.45540913981317   -1.68906240574236   -0.36700247335606
C          13.07870252526364   -1.56454602263736    0.97356508116604
N          11.82594984723454   -1.34580598063458    1.33489416223856
C          10.90140643932567   -1.25965487711383    0.36895318537395
C          11.26020592398998   -1.51489712440465   -0.95758440210068
N          12.51612258351700   -1.71820714135351   -1.32098864106393
H          13.80502974183941   -1.67556049511596    1.77232277294242
H          10.50926760411371   -1.58723795787111   -1.73789993570297
C           9.52005176326127   -1.01642311530932    0.80580534737708
C           9.10615381263662   -1.64771476088437    1.98268995742526
C           7.80372362375900   -1.55608864446825    2.42702664223211
C           6.85643475188751   -0.82041366936489    1.70326868551157
C           5.49001085775405   -0.75115640893963    2.10573579472575
C           4.58168963497688   -0.03048243431083    1.40205895961450
C           4.95529433583310    0.70839633406729    0.23696389095852
C           4.02828529444529    1.45863969764916   -0.52094006079949
C           4.45893655379537    2.13167503071078   -1.66727177729354
C           5.77955659520555    2.09913294542584   -2.06906036588816
C           6.72451679887707    1.36308899543437   -1.34498404556254
C           8.10061239325327    1.33043070977435   -1.72097108097180
C           9.00186930317847    0.58578467127727   -1.03303851525738
C           8.61218371528936   -0.20667601725407    0.09163480372098
C           7.26191596055329   -0.12443345093815    0.53472015242486
C           6.31181055125977    0.64877518972404   -0.18983864381191
H           9.83210171500951   -2.23430208793448    2.53545624613405
H           7.50206500267920   -2.06725875308100    3.33483996931991
H           5.18723772409388   -1.29871202188308    2.99214213979053
H           3.54920152310102   -0.00247737813790    1.72737809713064
H           3.74456053123149    2.71872543742497   -2.23470527445602
H           6.09112004520726    2.64831122321262   -2.95081184405494
H           8.41559080845867    1.92612291429776   -2.57139436850072
H          10.04663110746944    0.60834160436774   -1.32083873485501
C           2.60470192864538    1.53912048286788   -0.15718183999335
C           1.60422880765852    1.43742357156431   -1.12673840235871
N           0.31708344207720    1.46264703437814   -0.82275786904255
C          -0.01881191362643    1.60962486482390    0.46581615444327
C           0.98309929870780    1.75466575833197    1.42962328446994
N           2.27063929428937    1.71341235741102    1.12749402772653
H           1.85302522279011    1.29284550560966   -2.17363556976723
H           0.73668285957191    1.92735518336287    2.47282721709810
C          -1.44120250013119    1.55817267191171    0.83266478985671
C          -1.78917084079091    0.89216114017126    2.01211790405456
C          -3.10636043204256    0.73699692681667    2.39249755803190
C          -4.13998919167798    1.24237445697194    1.59557346204111
C          -5.51117784341572    1.05105473149973    1.93703948027056
C          -6.50696612885219    1.52843560050619    1.15037380834744
C          -6.22830209753455    2.25889907558617   -0.04625943777191
C          -7.24674959061555    2.74509108686799   -0.89611881292072
C          -6.90253132534032    3.42416848260294   -2.06757362537887
C          -5.58317771575276    3.64452478195785   -2.41027775746550
C          -4.54773861464319    3.16529733230001   -1.59900825354294
C          -3.17526733069166    3.36980199944679   -1.93061605013842
C          -2.17944104341958    2.86859241674327   -1.15824023493441
C          -2.45810889231180    2.11383801401518    0.02320128814244
C          -3.81900169190216    1.94481830894139    0.40492746029697
C          -4.86697532430439    2.45865569804698   -0.41044396986925
H          -1.00759153516213    0.45454542772453    2.62389538509446
H          -3.34709448805487    0.20211333912966    3.30472166047162
H          -5.74316757315564    0.50093545380256    2.84302297180507
H          -7.53914958390470    1.35956497549296    1.43047246221430
H          -7.69101607267057    3.80807906090567   -2.70627618774715
H          -5.34358077125330    4.18959360497884   -3.31686223675733
H          -2.94253088316024    3.93809424004581   -2.82507723186038
H          -1.14666605128859    3.03736543392433   -1.43676542310944
C          -8.67152547083417    2.51516268227423   -0.60698200181301
C          -9.54986263829099    2.09096367357645   -1.60648193152246
N         -10.81874630903998    1.80458433435388   -1.36105189571893
C         -11.25821673341282    1.95383648832992   -0.10545821986065
C         -10.39090670857705    2.42106501770802    0.88448595495886
N          -9.11744231821266    2.68813155673205    0.64332804111910
H          -9.20713025507570    1.94829617393419   -2.62676045735483
H         -10.72962918856754    2.55059182927296    1.90776983467728
C         -12.64548269846747    1.58650416090241    0.22168468517100
C         -13.37348602242183    2.42169499070353    1.07278565289729
C         -14.66127776413795    2.10886922438245    1.46095237068659
C         -15.27031954653860    0.92863313830202    1.01910348554197
C         -16.57957326533839    0.55375152975307    1.44527368598891
C         -17.16036316804621   -0.59353411897385    1.01379740921458
C         -16.49391750895093   -1.47045482734906    0.10149457449063
C         -17.07586830130383   -2.66512551278847   -0.36988547408633
C         -16.32092619007807   -3.54341050559175   -1.15121868305458
C         -15.02968377314735   -3.23804922402745   -1.52956684566504
C         -14.43819605181859   -2.03387565030396   -1.12772630752775
C         -13.10977139213135   -1.68395490034566   -1.51199033642279
C         -12.53506129167851   -0.52847303087591   -1.09590642950359
C         -13.23276905317231    0.39288550122205   -0.25436276927963
C         -14.55575552352737    0.06106439874806    0.15220504277115
C         -15.16556043027728   -1.14535597069854   -0.29368767269678
H         -12.92343396140548    3.34578738845520    1.41977275391690
H         -15.20618948683863    2.77773818491827    2.11815597374355
H         -17.09858115863239    1.20406825271651    2.14169997154673
H         -18.13921008295184   -0.87233837166440    1.38667475512788
H         -16.77905715902507   -4.47264871933814   -1.47243827228407
H         -14.46585146452443   -3.92863586022879   -2.14719846802595
H         -12.56020173971264   -2.37205094611702   -2.14584263479293
H         -11.52377622105527   -0.29157577430768   -1.40203500955284
C         -18.47041890070506   -3.04845757345821   -0.09411762137249
C         -19.54330157895624   -2.16173230313403   -0.21181984542386
N         -20.79464442470747   -2.53710209371996    0.01504812657813
C         -20.99486959930112   -3.80978971103266    0.34739274958491
C         -19.94247392731629   -4.70977022130272    0.41494164031205
N         -18.68833458101777   -4.33734496789512    0.19295542065315
H         -19.39009170219825   -1.13453998137347   -0.52674836977527
H         -20.10772369243791   -5.75605225701813    0.65315358994561
H          21.79528077124691   -1.09602253065746    0.03121821126884
H         -22.01729247504150   -4.11361330252216    0.54612815410011
