    84
       -150.26488045
N          12.76592437146615   -3.28704447706174   -0.03197204633502
C          13.27008765678645   -2.25813270208524    0.07964282891319
C          13.92695918467425   -1.00036075833841    0.20420596727664
C          15.32406416061979   -0.97836564275532    0.24726966214226
C          16.00253669006005    0.22538231621561    0.33013396205376
C          15.29098946908378    1.41826338306443    0.36524433520302
C          13.90573949724435    1.40519985599728    0.32077101596661
C          13.20138119459557    0.20375557783503    0.24418130875311
H          15.86920301300288   -1.91453972443793    0.21188232913363
H          15.81817421062689    2.36320119458960    0.42999904006806
H          13.35820006736578    2.34015734564475    0.36542229098170
N           8.55806919912057    2.96867458576940   -2.11716004919507
C           9.03702676855013    2.14445599754601   -1.47218199040471
C           9.66367988491950    1.15515060854051   -0.66035395559089
C          11.05802827772075    1.13020822485818   -0.60554823700258
C          11.72641745621072    0.21394982811854    0.20287605054995
C          10.97134250105897   -0.67174813336364    0.97606488121317
C           9.58885221729161   -0.64833433011448    0.92796523963408
C           8.90779292356443    0.25236655899607    0.10857047922247
H          11.61960552878898    1.82718813304618   -1.21695468255761
H          11.46911552888422   -1.37750802198239    1.63033725519343
H           9.02409617038709   -1.35628311276007    1.52432567085165
N           4.30215876851734    0.54651783116143   -3.51126065076412
C           4.72144625228999    0.42908323661139   -2.44571780138869
C           5.34927342779881    0.31315183011087   -1.17008441406357
C           6.74356645162336    0.33391894888459   -1.13724626197194
C           7.43456589794087    0.24614967737009    0.06909969310316
C           6.70045021839521    0.13184415402002    1.25331988061540
C           5.31778460246500    0.11886455817036    1.22911387356575
C           4.61315202944466    0.20948027413654    0.02669170014477
H           7.28712941013430    0.40366785407967   -2.07191268883357
H           7.21786641770173    0.06975361545273    2.20410231505317
H           4.77752626639545    0.01703311971287    2.16359432275773
C           3.14639592511997    0.18537412679520    0.00016574118484
C           2.35731167390928    0.59905749956056    1.07665433015725
N           1.03660013187052    0.56646873666435    1.03190836306615
C           0.45540937768824    0.13705100298203   -0.09625616544435
C           1.24465696634814   -0.27047217786068   -1.17433342653070
N           2.56486678504077   -0.25107350523620   -1.12248494895075
H           2.80064338618996    0.98094322106708    1.99096490430149
H           0.80411866386916   -0.64244408128156   -2.09346377008211
N          -4.43374324260478   -0.17299889654328   -3.45985685573329
C          -3.86978488686757   -0.08626408985007   -2.46046940229772
C          -3.15263523608262    0.00388645140604   -1.23213169065257
C          -1.75820543592656    0.04233642511653   -1.27371974724349
C          -1.01228744595252    0.10022790027862   -0.09782606757950
C          -1.69206485097320    0.12112025051138    1.12634724282164
C          -3.07192578223587    0.06805704682211    1.17266848423180
C          -3.82791593668635    0.01195754548076    0.00113573918291
H          -1.26876216497782    0.03883007839645   -2.24054466204197
H          -1.11692380527334    0.17631553113018    2.04405762542919
H          -3.57871204624490    0.08962633344693    2.13128166799758
N          -8.84287509740467    2.32243696773463   -2.14247614224072
C          -8.24506781229983    1.61612384099226   -1.45823310572504
C          -7.48263309986398    0.74929021048370   -0.62231965113029
C          -6.09071297006040    0.79305890151360   -0.71158574702573
C          -5.30014405451417   -0.04157380301237    0.07365032529518
C          -5.92588066056391   -0.93156712279048    0.95072847527969
C          -7.30615199588460   -0.99203977703952    1.02791642480099
C          -8.10903411247859   -0.15449292410532    0.25387869007395
H          -5.62906278617022    1.49947098036813   -1.39128251714229
H          -5.32473735666660   -1.59486204189938    1.56236842320609
H          -7.77272242952836   -1.68772595299788    1.71653389113721
N         -12.56698072882114   -3.94761779900297    0.59949775973908
C         -12.16437987553492   -2.87050911646369    0.54259479045239
C         -11.60260499101185   -1.56244368931066    0.49404958262515
C         -10.21345551858342   -1.46582611807693    0.38128977223172
C          -9.57745216117746   -0.22755944476060    0.36867119135542
C         -10.35472476383334    0.92748209183636    0.49624976067885
C         -11.72751465049312    0.83662982762036    0.61924796905847
C         -12.38268832246634   -0.39779804371152    0.60605254682002
H          -9.63146337795449   -2.37554475871960    0.28652951879596
H          -9.87701859451144    1.89976881730429    0.51667430901991
H         -12.32366985832816    1.73611341298996    0.72735957839696
C         -13.84910628721267   -0.40351875035505    0.72127700060038
C         -14.67682900723057   -1.36669811866024    0.14296262461001
N         -15.99685734180479   -1.31996883216119    0.26327519102449
C         -16.50965345146644   -0.30782289956256    0.95544407745980
C         -15.69797093198899    0.67406677822817    1.50435046125944
N         -14.37816722863242    0.63108037827399    1.38778718220856
H         -14.27098157391978   -2.18139476922322   -0.44601733363695
H         -16.11557437910414    1.51375509215388    2.05094354807337
H          17.08559809291311    0.23504136462623    0.36517189796913
H         -17.58883046436436   -0.27835590813553    1.06299081865221
