   124
       -224.20877083
O         -18.52094302786828    2.13677975421182   -0.96398602986981
S         -18.48442312881036    1.21779355979867    0.15210211714253
O         -18.22539996977215    1.74283098652703    1.47497497743439
C         -19.93029708517169    0.18648881513908    0.16296370377794
C         -21.22907041428399    0.58614075778516    0.38210247475182
C         -22.22088178440278   -0.39097148487665    0.34735305555529
C         -21.89380006202780   -1.71825208703328    0.09946317009778
C         -20.57686958789314   -2.10540265534543   -0.11938518256062
C         -19.57481828477436   -1.14073045933454   -0.08819519609093
C         -18.13543126618163   -1.32988685354222   -0.29165731354796
C         -17.45206270317959   -2.51055972543527   -0.56575212709699
C         -16.07339426121949   -2.47584365922805   -0.72317981676566
C         -15.35070402288236   -1.28520408717902   -0.60835802458085
C         -16.03716289647757   -0.09044673006985   -0.34873503844224
C         -17.40100745290185   -0.14602408966888   -0.19476310940222
H         -21.46963036165149    1.62413560831970    0.57417014110917
H         -22.67828275090569   -2.46636151982821    0.07597839024417
H         -20.33814042029176   -3.14504491467123   -0.31111997568831
H         -17.98422694229673   -3.45074723953937   -0.65303775568768
H         -15.53952421139457   -3.39844074788989   -0.92294154354341
H         -15.50898372200966    0.85310532114337   -0.29379651271407
C         -13.88729176205766   -1.27801998829080   -0.79925413224814
C         -13.36292843430733   -1.84801781843520   -1.96007059254127
C         -12.00821633668146   -1.80671161446976   -2.22913615805693
C         -11.12308605423536   -1.19546054712760   -1.33349137507147
C          -9.72785617780337   -1.08169667552552   -1.61131041028028
C          -8.87801030577379   -0.50192115623951   -0.72717542767092
C          -9.33599658338392    0.00057180413589    0.53103046671577
C          -8.47296326577146    0.58790178858477    1.47971804521668
C          -9.00633028370513    1.18280883814249    2.62708993078960
C         -10.35930271633389    1.14603609203607    2.89269992645410
C         -11.24014618573033    0.51693244454953    2.00385978189522
C         -12.63746850409276    0.41700604353062    2.27474515834262
C         -13.48639525917258   -0.16734135156252    1.39333971762409
C         -13.02158509406242   -0.69012533535567    0.14578620891935
C         -11.62627754348166   -0.64532319626260   -0.12600703268579
C         -10.73225513795447   -0.04379189876569    0.80294255502654
H         -14.03896919849394   -2.30088188756166   -2.67742056213706
H         -11.62446494033849   -2.23718288559390   -3.14754508516549
H          -9.35995453404348   -1.45864852131223   -2.55973012418137
H          -7.83103611862506   -0.39113655370997   -0.98462903970546
H          -8.32567967894307    1.66059372210928    3.32340914584200
H         -10.74879293996283    1.59742368743616    3.79847544416157
H         -13.00933826108663    0.81509084379501    3.21276486852660
H         -14.53911212360069   -0.25389927254822    1.63624586283231
C          -7.01025430130222    0.60672338550515    1.34127404691245
C          -6.25950855259542   -0.49888292819763    0.92672275110801
N          -4.94107124860813   -0.45771506289518    0.82570915507678
C          -4.33430903830718    0.68916815366949    1.15732619664312
C          -5.07606956483821    1.77236746537465    1.63503699003550
N          -6.39314850996185    1.73251715270553    1.72820185884193
H          -6.73681838248921   -1.44755436336984    0.70282530558219
H          -4.57681004617319    2.68575499244724    1.94305052456219
C          -2.88230000943792    0.75268411345318    1.02432112568320
C          -2.12640429134836   -0.32959935702963    0.56383120901180
N          -0.81357357793175   -0.26365850567104    0.44526929615868
C          -0.20870590756855    0.88583803133917    0.78290790728062
C          -0.96857273997824    1.96254113873079    1.25038908824071
N          -2.28419904642473    1.90025961290228    1.36770466942759
H          -2.61219624418481   -1.26118687072402    0.29073178997072
H          -0.50576165577090    2.89782261777079    1.54847909099616
O           4.22434626767722   -2.16664817455232   -1.28456846199460
S           4.37865098624963   -1.65795745021067    0.05978920552526
O           4.30422277297322   -2.58513947257721    1.16687080032767
C           3.29969227427315   -0.27192159653814    0.33529302915613
C           1.93064222427366   -0.29341067141192    0.41078038919634
C           1.25290731858901    0.91295982848801    0.66006218724407
C           1.99759111246827    2.09049781608276    0.79671564312485
C           3.38209607547876    2.09139376703387    0.71754359464415
C           4.05521535372422    0.89388352262042    0.49461175845316
C           5.49848557697255    0.67152594196440    0.41720523246078
C           6.52041672275905    1.60386947719212    0.57270589410303
C           7.83925350774740    1.18138763065249    0.50035329122940
C           8.17235541114524   -0.15769525799845    0.26582147034315
C           7.14552012924661   -1.09940206255895    0.11044618592401
C           5.84525859519147   -0.66238080050008    0.18876785118684
H           1.37045109714820   -1.21298023425748    0.29167762769343
H           1.49266712991705    3.03450315108853    0.96613714771786
H           3.92939857109343    3.01974079091235    0.83346193523704
H           6.29433515932075    2.64654370162493    0.76359687350510
H           8.63358182423329    1.90162150226729    0.66163735193960
H           7.37251012935216   -2.14184668086847   -0.07494999452908
C           9.58336213284786   -0.58539851136838    0.27172365127670
C           9.94645165531165   -1.65848705046670    1.08801871045913
C          11.26889912591638   -2.02703790049920    1.24097788991032
C          12.28482246266523   -1.32205742375422    0.58469402573053
C          13.66516312241733   -1.61368727048434    0.79850051200897
C          14.63987929733845   -0.91407663816072    0.16556687553489
C          14.33001414124148    0.12259764035385   -0.76979683417640
C          15.32144446141032    0.86553803972899   -1.44360162043835
C          14.95090566632090    1.93933587232826   -2.25763376212869
C          13.62479252108452    2.25316337662585   -2.47316498005626
C          12.61073388135248    1.51399146503886   -1.85141270372932
C          11.22950306154453    1.79571308153446   -2.07450782025602
C          10.25669256979023    1.11848971557788   -1.41529760004214
C          10.57315367719669    0.09678371280550   -0.46577117550131
C          11.93842142579261   -0.26131580342315   -0.29200544859135
C          12.96116473960203    0.45423233491710   -0.97464117049711
H           9.17626968165611   -2.18460090544295    1.64146460114468
H          11.52901816230091   -2.85116032830045    1.89601249392471
H          13.92198144009823   -2.39939601913939    1.50108242175259
H          15.67967615715922   -1.12629513574997    0.38562389295075
H          15.73384121364309    2.51654185809267   -2.73744483064018
H          13.35932317988286    3.07690538256842   -3.12664015993363
H          10.97193047355629    2.56889372013260   -2.79066594251722
H           9.21417838135229    1.33616371647400   -1.61825022706962
C          16.76006258161165    0.58011627614217   -1.33235167969789
C          17.30204360244475   -0.70509516351032   -1.42672105868768
N          18.60203895455627   -0.92978007777183   -1.32126237327659
C          19.39747545568697    0.13084656183528   -1.13746609846527
C          18.86472713517785    1.42146363068891   -1.11412848968815
N          17.56583061461238    1.64471536824264   -1.21250074753000
H          16.67122453983031   -1.56654046060221   -1.62156036048731
H          19.51717011623693    2.28259901503566   -1.00829523845789
C          20.83063232713030   -0.11468483463798   -0.97977641844878
C          21.36447671845557   -1.40470812845235   -1.01215119202829
N          22.66096452077744   -1.62933724413606   -0.85795698257497
C          23.43817465514788   -0.56448038875063   -0.67178688678502
C          22.91608506752347    0.72073107677510   -0.64326947402901
N          21.61800149920099    0.95107819398852   -0.79491725296535
H          20.71737409594552   -2.26254141930941   -1.16573687294342
H          23.55473997307878    1.58567166903526   -0.49358489657169
H         -23.25447673092732   -0.11190645209937    0.51505455194062
H          24.50014891513630   -0.74597396722505   -0.54269692316482
