   124
       -238.45920280
O          20.08060020449156    0.83282207826222   -3.01087130848544
S          20.31385406446127    1.52534865651877   -1.76351896190591
O          20.33201567383489    2.97093509443617   -1.76401760437363
C          21.75319649389219    0.88289306241482   -0.94663402377710
C          23.05684905009127    0.97224722279039   -1.37896015180087
C          24.04304579213871    0.39505061882240   -0.58265820831387
C          23.70603234000716   -0.24466088715105    0.60358152856041
C          22.38436910559416   -0.32586048634219    1.02659005022134
C          21.38809820120990    0.24589118847399    0.24176586013893
C          19.94428428511723    0.26983145829605    0.49481393835473
C          19.24953245396942   -0.26720287688005    1.57419533859900
C          17.86809804168392   -0.14492808564531    1.62092568334712
C          17.15251839367922    0.50159890495560    0.60833974433080
C          17.84927908012554    1.04798043342815   -0.47828682814763
C          19.21656331883159    0.92020590799372   -0.50383008438797
H          23.30521963181375    1.47326444933014   -2.30603156937688
H          24.48651056535884   -0.68941458126954    1.21075061282900
H          22.13730456288431   -0.82902959870132    1.95413819683959
H          19.77450216114125   -0.78156898511651    2.37071709859480
H          17.33011204504339   -0.58310401858617    2.45427374341147
H          17.32821107066268    1.57311158103830   -1.26904570143463
N          12.57225631320134    1.26270535798223    4.26059889619302
C          13.03675185194106    1.10927890517600    3.21868251527552
C          13.64290190448527    0.90626143777616    1.94522505975159
C          15.03458394895951    0.82627050230898    1.88160714554139
C          15.68361632585118    0.59724827693866    0.67053188082785
C          14.91050890801825    0.44767425933139   -0.48486455124133
C          13.53013413457153    0.51450212192102   -0.42538471803251
C          12.86929596511769    0.74635758859813    0.78138927416199
H          15.60795283928732    0.96036104431265    2.79174843535274
H          15.39300424307734    0.25509566055300   -1.43605604303497
H          12.95174479090663    0.39972609839132   -1.33529526313060
O           8.18040325409659   -1.02040853160461   -2.04958107340502
S           8.13430276563332   -1.19132048896371   -0.61469005634896
O           8.24366457558922   -2.52605747920270   -0.07060651703374
C           9.28512366519000   -0.09423102027578    0.17704855790837
C          10.65536672886721   -0.15710245211312    0.11190530275243
C          11.39722340958617    0.79906646749005    0.81999806461337
C          10.72384933168478    1.78584705048679    1.54594645294006
C           9.33839320094674    1.83374391200728    1.59721866928643
C           8.59774334682204    0.87697922179093    0.90930417537992
C           7.14330262801130    0.73024408621645    0.84760704411497
C           6.17053881287405    1.51303120095922    1.46437742277258
C           4.83543555703962    1.19103959838612    1.28962787214707
C           4.42849998378893    0.09846273865672    0.51032862221976
C           5.40707919082976   -0.68629494291060   -0.11880471952357
C           6.72564591998464   -0.35083641243916    0.06711083631429
H          11.14886226765650   -0.93985139097000   -0.45059521517999
H          11.29577956211700    2.54069459998867    2.07271739787367
H           8.84450016477063    2.60986502253831    2.16987743959502
H           6.44975751011498    2.36260816216834    2.07649241382343
H           4.07177868115957    1.79431602219507    1.76841207338601
H           5.14610455970224   -1.53361251974454   -0.73984110915942
C           2.99507298732255   -0.18464028982177    0.38343253916636
C           2.46709044588664   -1.31462173661816   -0.24879569494407
N           1.16599604538099   -1.52443645297040   -0.33968448791576
C           0.33647297167582   -0.61982889531582    0.19894278021391
C           0.86513268065525    0.50261382545667    0.84396876521600
N           2.16541869657226    0.71386819718282    0.93176372925482
H           3.10579462746729   -2.07293180801114   -0.68966791534606
H           0.22836066219652    1.25225766963399    1.30175905624284
O          -4.83073928886834    1.90226361396283    0.16857147263933
S          -4.78932405501401    0.64584006411577    0.88197287473134
O          -4.88897491165269    0.66122811861018    2.32364504605399
C          -3.39337233816908   -0.32107467094297    0.36391383642299
C          -2.07160935632991   -0.00223741087456    0.55152569618934
C          -1.09885682238324   -0.88681371618477    0.06106124095088
C          -1.51712926260217   -2.05662163131304   -0.58958197117598
C          -2.85661077373328   -2.36005877759796   -0.76891119840025
C          -3.82321381632489   -1.47864766390774   -0.29009845915257
C          -5.27980050297753   -1.58163428767966   -0.39022235967675
C          -6.03679115757076   -2.58611242586859   -0.98686424655835
C          -7.42023304837627   -2.47788969115403   -0.99889124992753
C          -8.07748136696475   -1.38313002785651   -0.42859150846699
C          -7.31951034969257   -0.37511215394850    0.18357396326335
C          -5.95262314476363   -0.50149443282945    0.18711913451386
H          -1.80570517378148    0.91440773746884    1.06190964272087
H          -0.75883558595749   -2.73595286512890   -0.96392683007383
H          -3.14385773466746   -3.27148642630145   -1.28028703429247
H          -5.55645813199773   -3.44200244645487   -1.44661172499175
H          -8.00311786164160   -3.25207543733478   -1.48549152737376
H          -7.79676397509210    0.47456967173191    0.65547720879390
N         -13.12373711341567   -4.42479872145217    0.01365945202220
C         -12.52274526502666   -3.45911856001187   -0.16286026737041
C         -11.74749259493359   -2.28210599111924   -0.37217746314452
C         -10.35698669555698   -2.39088883231118   -0.31985039967282
C          -9.54512138871246   -1.27025936576912   -0.47866487315014
C         -10.15294621445851   -0.02840952854331   -0.68796393115878
C         -11.53016276170705    0.08503169636395   -0.73840492083047
C         -12.35415184663769   -1.03108707506054   -0.58644664589614
H          -9.91541392479641   -3.36205813483968   -0.12781136166720
H          -9.54162660513768    0.85442352542869   -0.83537874387818
H         -11.97711324684360    1.05542529574377   -0.92259772813530
O         -16.46649326179972    2.90689940085707   -0.00365790729315
S         -16.77465948992453    1.63807048731730    0.61741723960440
O         -16.76449462743900    1.54986841804979    2.05988735716864
C         -15.78645511263993    0.34666742801212   -0.09689573450506
C         -14.42300112159803    0.21306417818863   -0.00415498713735
C         -13.81768543540759   -0.87466149790990   -0.64972084144616
C         -14.61516232500581   -1.77465519306648   -1.36273690945886
C         -15.99168735081825   -1.62198485305552   -1.44431584485259
C         -16.59718472627207   -0.54493520375392   -0.80370025123846
C         -18.01682117900080   -0.19076597926683   -0.76990328754702
C         -19.08649666695036   -0.85342191362141   -1.36643754516234
C         -20.36441155290399   -0.34022721934148   -1.21942208538366
C         -20.61921902464910    0.82778366562324   -0.48761522947236
C         -19.54282752898443    1.49598086862888    0.11485581989734
C         -18.28315878638580    0.97121086360627   -0.04129708646052
H         -13.83520445107997    0.91940445738861    0.56878524819821
H         -14.14736715962072   -2.60332811762390   -1.88123479750143
H         -16.58206754489456   -2.33491180817351   -2.00775372449965
H         -18.92650974808772   -1.75869755459376   -1.94051722323486
H         -21.20246751328489   -0.84971526960890   -1.68288047898837
H         -19.68198060414233    2.40489347620629    0.68594066072349
C         -22.00334439839096    1.31142267186113   -0.38234132838524
C         -22.39240352577458    2.40139685515572    0.39992392413197
N         -23.65320839854969    2.80672085032259    0.46471142307959
C         -24.54844481368815    2.12962803220104   -0.24741646942507
C         -24.17624850291916    1.04126562664922   -1.02285442283247
N         -22.91690223225494    0.63523463415755   -1.09151234160072
H         -21.67827111696612    2.96268558094217    0.99302383666526
H         -24.90405927697866    0.48281529744548   -1.60307016500461
H          25.08003836848254    0.44621763986561   -0.89293192037766
H         -25.57883657135196    2.46459898401035   -0.19366246222188
