    92
       -179.66545190
O         -15.26819678524567   -0.44356172222621   -3.55367147730703
S         -15.40469494512039   -1.26955803600328   -2.37527069212926
O         -15.17596902442244   -2.69207541450507   -2.49246657948806
C         -16.95480909190710   -0.95283577940081   -1.56932626746739
C         -18.21070941610182   -1.23734939686033   -2.05544384234385
C         -19.30336256782247   -0.90617170702130   -1.25814917298630
C         -19.11504099335491   -0.30940253578008   -0.01757619549392
C         -17.83997796639697   -0.02877493193284    0.45925027800435
C         -16.73806728878222   -0.35440019289505   -0.32582380724344
C         -15.32003259392651   -0.15026377385379   -0.01906813911509
C         -14.75687445517184    0.41448054734817    1.12134133899074
C         -13.37699068752357    0.51915004693003    1.22154904460185
C         -12.52785746595862    0.07011562927226    0.20306383517475
C         -13.09664731231891   -0.49979270452136   -0.94948503894275
C         -14.46189625318747   -0.59396303631196   -1.02918013775909
H         -18.34197742650866   -1.70249224606379   -3.02429231825655
H         -19.97685676343946   -0.05788787011741    0.59038511182758
H         -17.71049508365025    0.43683646883045    1.42933641630247
H         -15.38484729933316    0.77288403536970    1.92886757651661
H         -12.96057561386854    0.96560498096554    2.11718153102756
H         -12.45874108684267   -0.85333514515673   -1.75048008351618
C         -11.06600291681291    0.16873028810925    0.28321554663726
C         -10.36976613514260    0.65276036425440    1.39572908842512
N          -9.04913230967792    0.72107588942631    1.42786981691755
C          -8.38224964295415    0.30455460457278    0.34423184077824
C          -9.07257598392623   -0.18015165288620   -0.77046610524753
N         -10.38949927131483   -0.24625537853637   -0.79895617229820
H         -10.88691150256395    0.99188700756929    2.28754399475511
H          -8.52995139293895   -0.51696297757214   -1.64812499083995
C          -6.92501417337954    0.37176087178423    0.37762625496109
C          -6.23436885814518    0.86292030957717    1.49002859723552
N          -4.91479980608417    0.91584357880378    1.52598793554028
C          -4.25504194947292    0.47689042536911    0.44468913151269
C          -4.94552883146811   -0.00937338018528   -0.66957952744846
N          -6.26528041284524   -0.06237945783476   -0.70508941636405
H          -6.77817062304073    1.21478117822526    2.36115740557850
H          -4.40165383928778   -0.36038002981906   -1.54089584304036
C          -2.79741208750330    0.52311401301011    0.48802615724777
C          -2.11040815598615    1.00751656375620    1.60480224894349
N          -0.79273008502509    1.03355308897773    1.65403379491557
C          -0.11304382728912    0.57978930376429    0.58885348036077
C          -0.80591550597142    0.10800973174326   -0.53098578508634
N          -2.12737540099666    0.07772079457693   -0.58161895987227
H          -2.65636859531638    1.37471186015829    2.46820664451999
H          -0.28472365703496   -0.25738231094683   -1.40959836149109
O           4.76365354003152   -1.73895680645337   -1.44609897593790
S           4.81929109681889   -0.30772674801429   -1.25076005036927
O           4.84216622787001    0.55166578189949   -2.41287989297108
C           3.55188877486993    0.21369069561575   -0.11835977781071
C           2.19491955776075    0.15677431596621   -0.32346026362434
C           1.34920423274836    0.61219186948711    0.70019572224532
C           1.92214439020119    1.10824377626690    1.88059937571729
C           3.29202289861450    1.15734740358707    2.06871485770225
C           4.13168273122694    0.70052610994785    1.05561502074396
C           5.59171724677085    0.64895858384301    1.04964331266323
C           6.46570675584611    1.04982950720590    2.05559888767690
C           7.83172982439753    0.90989382016053    1.86535848420228
C           8.35922460496065    0.37277670286882    0.68501884120044
C           7.47720920103768   -0.02378738450705   -0.33572376531373
C           6.12946772684722    0.12216279020447   -0.12895637014407
H           1.80472581803181   -0.23445050357267   -1.25426996328970
H           1.26060972450318    1.45886770859559    2.66534889311226
H           3.70137052676021    1.54410199993225    2.99461389283891
H           6.08787075997645    1.46823016387483    2.98121305930300
H           8.49612873094984    1.23521811545035    2.65729905837285
H           7.86863567900953   -0.43634990541967   -1.25781733425115
C           9.80107988797322    0.20702019967696    0.47511469132774
C          10.76140547542051    0.38901647513318    1.47531756395486
N          12.05160576084337    0.23094835444413    1.24964062819460
C          12.43938338037080   -0.12174082059262    0.01587402173736
C          11.47955340492101   -0.31748917028391   -0.98204720684951
N          10.18765551333223   -0.15515215166314   -0.75604588366568
H          10.48419361437992    0.66247913163997    2.48822218872190
H          11.75599687855873   -0.61046148834550   -1.98998797642055
C          13.88453994395445   -0.27791616771273   -0.18302982511451
C          14.47083968935613   -0.65209860417937   -1.39573693271517
N          15.78099015291818   -0.77907510494129   -1.53609712156658
C          16.54200653055916   -0.53507587538650   -0.46295403248946
C          15.95855910832659   -0.16348458139973    0.75200009832521
N          14.65335879881737   -0.03651925422045    0.89038050371618
H          13.87193744157172   -0.85527708324499   -2.27798134866261
H          16.57911131963290    0.03207770380103    1.62094915915422
C          17.99033332005168   -0.67042123221242   -0.61217065703554
C          18.57423483894494   -1.04168241161258   -1.82516312586090
N          19.88651280831778   -1.16246340811614   -1.96133559620047
C          20.62854203629835   -0.91332644957873   -0.88461762247983
C          20.05573103868736   -0.54473241646148    0.32455807972495
N          18.74224184061438   -0.42190455111489    0.46633110558709
H          17.95468141200213   -1.24142955536229   -2.69368530693568
H          20.66588209184758   -0.34321139151449    1.19947176732797
H         -20.30690428600981   -1.11616452804310   -1.60908377370503
H          21.70370303404730   -1.01106551762878   -0.99334456719154
