   124
       -238.46053516
O         -21.09712884082562   -2.22228825828008    1.42852950504951
S         -21.09074104518341   -0.85382607155667    0.96102301831520
O         -21.27663690111906    0.20974427097718    1.92223509295235
C         -22.19478010217143   -0.65690778796659   -0.41501507118983
C         -23.56660975301631   -0.76708225220168   -0.39534364549606
C         -24.24747366665884   -0.57667648469354   -1.59528382872291
C         -23.55177987674478   -0.28567381672804   -2.76211345937031
C         -22.16598624596919   -0.17796025870957   -2.76509096714363
C         -21.47155548645037   -0.36660166082483   -1.57434424555679
C         -20.02336220124823   -0.30668533707810   -1.35688168459818
C         -19.02126876321398   -0.05058541835802   -2.28788745028569
C         -17.69624378939240   -0.05368311603449   -1.87712415341664
C         -17.33738962798149   -0.30780694739429   -0.54891089398120
C         -18.34505988005137   -0.55834543199385    0.39331540124981
C         -19.65026539949106   -0.55096243409437   -0.03365711862169
H         -24.09579419058982   -0.99431797236397    0.52141462172580
H         -24.09806917263550   -0.14057713923443   -3.68733046572038
H         -21.63759082192743    0.04883722452916   -3.68375329794962
H         -19.26523665728338    0.14288263298658   -3.32593280561532
H         -16.91971641676415    0.12302048878931   -2.61286717996247
H         -18.10672167773939   -0.73598003007681    1.43450647023432
O         -12.48917385893445    2.83927954112434   -0.53536903341254
S         -12.34661113673473    1.46591191407832   -0.96142652196056
O         -12.12494210799260    1.19097518252026   -2.36345053173626
C         -13.68889404681596    0.47663891113034   -0.34786140225423
C         -15.00520569205633    0.55733445243952   -0.73024367299587
C         -15.92119926772823   -0.33080619504852   -0.14821803176975
C         -15.46624983529761   -1.25084520061173    0.80281822445773
C         -14.13225322130570   -1.31561773414580    1.17664882085335
C         -13.21801203648076   -0.44401521784130    0.59140159702148
C         -11.77416082439328   -0.36290244568499    0.81134471431100
C         -10.98788065842586   -1.13642905460195    1.66018869648248
C          -9.61712411023916   -0.92718051215370    1.69920250129610
C          -8.99830723787850    0.04541504110892    0.90514941264763
C          -9.79411316457559    0.84135979731300    0.06290658308205
C         -11.14627668548272    0.61798577888888    0.03731442070976
H         -15.32541307120346    1.29860781749370   -1.45162053590026
H         -16.16783011430357   -1.95032835337027    1.24315899766579
H         -13.81008623375624   -2.04612528622195    1.90949525855419
H         -11.43528927108894   -1.90162814904099    2.28385334761113
H          -9.02275752945974   -1.53942765760739    2.36756067757419
H          -9.33465994214610    1.60402365583159   -0.55412318165227
C          -7.54623125669931    0.25239948475952    0.89225532345530
C          -6.62625705601696   -0.59906711263826    1.51053581164590
N          -5.32246140832624   -0.40709034981408    1.42203706104856
C          -4.88062072313376    0.64652189602107    0.72132274084963
C          -5.80142088669434    1.51041694262477    0.12120355939272
N          -7.10474393975425    1.31309045108966    0.20214119955486
H          -6.94441432244036   -1.46710457503019    2.07896576369041
H          -5.48325818704094    2.37627319802489   -0.45025060825408
N          -0.42227833714006    4.05965065339090   -1.20363729922994
C          -0.85645830030817    3.10690244675980   -0.72570587028584
C          -1.42336142791024    1.94448074101677   -0.12675699498922
C          -2.81120747528738    1.88041026438934    0.00441167390632
C          -3.42369682939833    0.78315423314056    0.60893801445886
C          -2.60696660977386   -0.24034961120109    1.10842289076907
C          -1.23338062571072   -0.18029572152700    0.98452046247472
C          -0.61251744709820    0.90008935638320    0.35373957655519
H          -3.39962877508861    2.70801583254991   -0.37355474913540
H          -3.07146224198862   -1.09482426808842    1.58775768257120
H          -0.62736902336089   -0.99872796895520    1.35651648843163
O           4.12368380118582   -1.47226058937644    2.49526877497582
S           4.26391357759815   -0.06092246436491    2.21160675489782
O           4.34956695332831    0.86468219106765    3.31803876613308
C           3.02863337674021    0.45953635358695    1.04599683405067
C           1.67043458492699    0.48606644240845    1.24776833866366
C           0.85105074491985    0.90950653856931    0.19141163864726
C           1.44018944125367    1.29061542391039   -1.01818050673980
C           2.81450704664291    1.25636931146186   -1.20211409795233
C           3.63081887732082    0.82952202188930   -0.15901025563370
C           5.08715722254117    0.68513175803657   -0.15039439523422
C           5.98447266348588    0.94383396313041   -1.18237145152661
C           7.33601775763908    0.70691323643943   -0.98120429922007
C           7.82539108177605    0.21545724997133    0.23419373514473
C           6.92538600336680   -0.03397969528971    1.28038035617593
C           5.59110844508796    0.20550321373377    1.06087889831287
H           1.24648116341465    0.20112956824544    2.20256186858648
H           0.80822823319699    1.59920331783848   -1.84261189372371
H           3.24046494204567    1.55028494929324   -2.15416992071640
H           5.63639283497418    1.31662489737118   -2.13851053883597
H           8.02544285298076    0.88471067778539   -1.79875619104251
H           7.27010454325160   -0.39183487217787    2.24240519858746
O          12.90955729632133    1.21509865690125   -2.18626383196500
S          12.92714729221863    1.32417060046037   -0.74485069917648
O          13.05755515557893    2.63323566166944   -0.14685522049215
C          11.54418196142028    0.45359731056947   -0.04792423471569
C          10.21696330091173    0.76687553037626   -0.20738910694535
C           9.26157355305393   -0.05718986447671    0.40486794765261
C           9.69331470036592   -1.15332091346465    1.16012965954685
C          11.03928018523564   -1.45205215067755    1.31073176031122
C          11.98971478699058   -0.64297887590491    0.69420740630860
C          13.44506997163329   -0.78921107324297    0.69778351795951
C          14.21152350242191   -1.76805690705572    1.32347315206268
C          15.59191703040733   -1.74417592871987    1.18757686837291
C          16.24124995027748   -0.75841317177356    0.43501686198798
C          15.46797431689138    0.23475315780122   -0.19148858962422
C          14.10597462602035    0.19409499959884   -0.04503276942679
H           9.92167406433831    1.63756308286652   -0.77935127725454
H           8.95836587004404   -1.80358941539221    1.62103152681059
H          11.34050696590639   -2.31341861045775    1.89538158951968
H          13.74032696260185   -2.54772287587943    1.91074446171264
H          16.16895092361998   -2.51850100170531    1.67970746284590
H          15.95053089187724    1.00755959720794   -0.77743846239832
C          17.69752115951419   -0.72034527248011    0.26155884438131
C          18.58638842658985   -1.63367701024075    0.83456157964650
N          19.89108315820823   -1.56270849324144    0.63762840390237
C          20.36567193756343   -0.57758379268670   -0.13668614447748
C          19.47636180756091    0.33824239598955   -0.70711011097627
N          18.17274532474857    0.26639958649359   -0.51127350268820
H          18.24262926535833   -2.44479909511002    1.46845305092882
H          19.81951394307400    1.14779440511497   -1.34283196657476
N          24.98629858476636    2.34029700140522   -2.54081404836469
C          24.47837411523678    1.49571562295101   -1.94744613740163
C          23.84481200125420    0.44941422008509   -1.21560589726192
C          22.45979738978209    0.46880363811700   -1.04436277408578
C          21.82090146126151   -0.54900174325996   -0.33557214574653
C          22.59870553528849   -1.58292596170801    0.20203914250644
C          23.97264513778008   -1.60116727838368    0.03368403456380
C          24.60492456703499   -0.59088534787734   -0.67451466019967
H          21.89730113307950    1.29094327555958   -1.47023027777210
H          22.10605470395095   -2.37516430049312    0.75466535813754
H          24.55726541571768   -2.41021003229190    0.45671697113387
H         -25.32791656710321   -0.65694759189060   -1.61641681495009
H          25.67960747948473   -0.60100190643487   -0.81096945073500
