    66
       -109.17653796
C          -9.84192300205282    0.57035742549205    0.79339569272148
C          -9.50623065845989    1.12454133461350    2.01903920884726
C          -8.18020243729537    1.22015418077907    2.41130094917104
C          -7.15694650852022    0.75019760038727    1.58020036525571
C          -5.77752099788434    0.85365100290383    1.93780692322620
C          -4.80134986079736    0.37180162104080    1.12865939848532
C          -5.10459171698403   -0.26902102213186   -0.11460153345840
C          -4.11311289893834   -0.79885470285935   -0.96599197399840
C          -4.47039010505034   -1.28166456492199   -2.22777910152200
C          -5.78816323121222   -1.31869903465015   -2.63739698998073
C          -6.80850350104220   -0.86480223057397   -1.79218544716156
C          -8.18552144265449   -0.92630955891399   -2.16981804758735
C          -9.16256514916798   -0.47437951453659   -1.34484951114601
C          -8.84931208293056    0.09286659057149   -0.07010582714578
C          -7.48805922988626    0.17322341654607    0.32664525742726
C          -6.46449218853808   -0.31979618146551   -0.52687609240542
H         -10.28832052074148    1.48987991124898    2.67572519363178
H          -7.92631457349244    1.66186880435399    3.36891944073244
H          -5.52298327420230    1.33938045500846    2.87408604046570
H          -3.76195991033162    0.49523121877527    1.41094450720752
H          -3.68627426427157   -1.65185323710855   -2.87963710310502
H          -6.04160469081958   -1.71341116141681   -3.61537158012201
H          -8.43251968993199   -1.34861578353959   -3.13839079569145
H         -10.20508062126938   -0.53019007494166   -1.64062209324349
C          -2.69884171366120   -0.89563002410885   -0.57974017239967
C          -2.28105205393271   -1.34590522287351    0.67569482115469
N          -1.00322721062328   -1.41292050538175    1.00946220141680
C          -0.09766298411994   -1.04090742183486    0.09495618552863
C          -0.51256801464099   -0.70982032204283   -1.19766844881518
N          -1.79138371450830   -0.63354175817128   -1.52881334366242
H          -2.99732363133231   -1.68777864963088    1.41610044817697
H           0.20743824775792   -0.53231719213963   -1.99020434914941
C           1.31242093361164   -1.12117030325270    0.50009929815239
C           1.68737826395508   -2.21141656638081    1.28990488517474
C           3.00182262416060   -2.41445013310411    1.65653803209513
C           4.00095828968340   -1.52648859603407    1.23793703564426
C           5.37042171853613   -1.71325565708135    1.59154068324762
C           6.33107982225683   -0.85132169885341    1.17341326276007
C           6.01433598698723    0.28371766482921    0.36344393870028
C           6.99222545242917    1.19052823535260   -0.09518374975232
C           6.59984987377385    2.35944771239925   -0.75178924548113
C           5.27199320583969    2.61944787697881   -1.02307874191928
C           4.27847150402652    1.70691815116936   -0.64635324964780
C           2.89790789980681    1.94164014249544   -0.91996932368161
C           1.94489356009266    1.04791365902379   -0.55466517440461
C           2.27983648845056   -0.16730330274511    0.12023262730786
C           3.64119608044295   -0.38734490522465    0.47127465373757
C           4.64608554899042    0.53307164207610    0.06197461781864
H           0.91971319776043   -2.91195544068802    1.60053772202620
H           3.27090977725265   -3.27164934979647    2.26404480352001
H           5.62924669283875   -2.56254402074947    2.21516965765868
H           7.35876450192704   -1.00200843771304    1.48351896029068
H           7.36789100236687    3.06009988303266   -1.06138584326125
H           4.99023078808859    3.52995822390419   -1.54058067945991
H           2.62230433836734    2.86264743796753   -1.42287448078930
H           0.90094438744553    1.26812325871400   -0.74610953053078
C           8.43805292606183    0.96434463443339    0.06278028984806
C           9.04926140390734   -0.26625462950159   -0.19119478090175
N          10.35790181133338   -0.44011442877456   -0.06917220548539
C          11.07890652372189    0.61819256024420    0.29237248948623
C          10.48866339314935    1.85611714417178    0.49391392624618
N           9.17844463387775    2.03346753032610    0.37751105092474
H           8.47145907265461   -1.11994421131668   -0.53054929643341
H          11.07920457612920    2.72867723458821    0.75544853302661
H         -10.88273340891242    0.50386573777434    0.49501263384450
H          12.14812076052630    0.47220755326025    0.40535297738090
