    98
       -153.72866427
C         -13.77816228495123   -0.13562885158800    0.18547184460478
C         -13.67603667976002   -1.14898908444376    1.12602246290153
C         -12.43778604009441   -1.54372111042850    1.60871988605971
C         -11.26747002767489   -0.92224246289972    1.15882989594902
C          -9.97212968823009   -1.30564085006560    1.62724269096374
C          -8.85083905915846   -0.68351152053488    1.18642640120434
C          -8.91209950992007    0.38478823758822    0.23563407802063
C          -7.76034254807161    1.04588573263581   -0.23264135431256
C          -7.88264637375201    2.04254395068425   -1.20189068854462
C          -9.11830151804824    2.41212309892256   -1.70144294227102
C         -10.28647450478178    1.79189910518257   -1.24457918173826
C         -11.58053729022222    2.16295495123858   -1.72662109974454
C         -12.70239328423871    1.55247659738171   -1.27123255376864
C         -12.63272790236000    0.50886346880152   -0.29531387255498
C         -11.35961760926706    0.11765663226068    0.19719244382827
C         -10.18419485104590    0.76369917936601   -0.27122903930128
H         -14.57390181372199   -1.63897168852453    1.48696243410670
H         -12.37010974393344   -2.34039521942074    2.34175719990959
H          -9.90436729803952   -2.11520450157257    2.34661513364110
H          -7.87755892530822   -0.99874663393311    1.54631887257675
H          -6.98953282553735    2.55146369025922   -1.54827674513397
H          -9.18634499463787    3.19710588977126   -2.44694926156570
H         -11.64331891245292    2.95140514322221   -2.46955564786569
H         -13.67958782677130    1.84354406296145   -1.64253190947081
C          -6.42251038998311    0.74773585315220    0.32512269819366
C          -6.18753397175152    0.99711925855420    1.67792974778140
C          -4.93772864390048    0.80398244470397    2.23680650270766
C          -3.87115196374831    0.34549397944001    1.45537657038393
C          -2.56154210233609    0.16152017371631    1.99514608466629
C          -1.54036441649763   -0.29150965116697    1.22669572387232
C          -1.73222879519381   -0.61490415765513   -0.15383474863704
C          -0.68572902732854   -1.09190273657290   -0.96721579632207
C          -0.92300069907587   -1.34722988961207   -2.31848570782557
C          -2.17391942433095   -1.15718573170949   -2.87637227152699
C          -3.23982834634113   -0.69568061383741   -2.09585536927468
C          -4.54905256008896   -0.50937241264800   -2.63625124079617
C          -5.56925167657528   -0.05263660990540   -1.86869164998163
C          -5.37692278596432    0.26916881050539   -0.48789811977866
C          -4.09037186809020    0.06558223637577    0.08136443593278
C          -3.01963580456804   -0.41413639188710   -0.72228952325358
H          -6.99859520597809    1.37402106572137    2.29170724334355
H          -4.77680415587599    1.01745460589730    3.28800226075717
H          -2.39909455989638    0.40043487247669    3.04107032699419
H          -0.55034193502656   -0.40950443385962    1.65301465930296
H          -0.11286880155780   -1.72542688459639   -2.93269862353621
H          -2.33595242732693   -1.37427532615589   -3.92665611079663
H          -4.71145490694650   -0.74850887775838   -3.68214176963000
H          -6.55900137842993    0.06883123881962   -2.29480599615245
C           0.65473160635628   -1.37624684868810   -0.40788832032568
C           0.78318822934422   -2.36010186597425    0.57340544756328
C           2.01945932107365   -2.70170020929203    1.09011899844896
C           3.18164620109755   -2.06843819705400    0.63549099806781
C           4.47315911452179   -2.39519411171288    1.15078186027524
C           5.59128181197834   -1.78249142639134    0.68921218114857
C           5.52703355005971   -0.78556346007459   -0.33510025433039
C           6.67792083812229   -0.14483395275105   -0.83525065695818
C           6.54554963021368    0.86066051605894   -1.79422099578556
C           5.30475835902015    1.23722520167433   -2.27424177555622
C           4.14186970133162    0.60973877534330   -1.81353164746336
C           2.84549117364625    0.97270449459587   -2.29111897395085
C           1.72937602817062    0.34501453382955   -1.84516604808243
C           1.80169449051976   -0.70782061193363   -0.87902319292144
C           3.07677821593359   -1.06211839088816   -0.35978560302096
C           4.24947726608994   -0.41283478240121   -0.83521350458074
H          -0.10498899609615   -2.87840620676179    0.91857935329474
H           2.09370795041264   -3.47303081681751    1.84907460297291
H           4.53988729721979   -3.14748181860858    1.92987101735223
H           6.56034574073251   -2.03619333870106    1.10436893100142
H           7.43861602740311    1.33774760756265   -2.18340387256974
H           5.22934898589679    2.01972212016236   -3.02159488706947
H           2.77267823535077    1.77109186063856   -3.02234214799918
H           0.75382238690194    0.64390260953757   -2.21240433854563
C           8.03374181921717   -0.54713685663959   -0.40095153027531
C           8.46260926379613   -1.85403953649082   -0.63945256771266
C           9.74057064139671   -2.26469470142297   -0.30649142976853
C          10.64574349144828   -1.37362613549421    0.28066265755860
C          11.97768323004388   -1.76303000826969    0.62539556411818
C          12.84388271243386   -0.88463366049590    1.18826531436564
C          12.45560484326522    0.46462805725338    1.46200805170749
C          13.33544967863203    1.38747025006376    2.03906785581347
C          12.92734488189215    2.68728806231345    2.29585274323891
C          11.63881982934102    3.09722394311486    1.98977990733753
C          10.72766507126115    2.20711741110000    1.41032824305472
C           9.38685994032211    2.58803933986482    1.09254152310000
C           8.52245642639433    1.71353452990749    0.52098639008233
C           8.91284716811434    0.37366392472922    0.20220508530528
C          10.22920699411555   -0.04158373588134    0.54016749259231
C          11.13582330786136    0.87555137501572    1.13662512058218
H           7.78354258004277   -2.55161720045520   -1.11792278502644
H          10.04995692588904   -3.28432605696966   -0.50965816607416
H          12.28081258293359   -2.78522321705702    0.42338989614866
H          13.85291209170978   -1.19044552283416    1.44480722638779
H          13.62248392246093    3.39008028463602    2.74238718830246
H          11.32937832492217    4.11560500347723    2.19916024146072
H           9.07063796557373    3.59956850360629    1.32563486423971
H           7.50565721738899    2.02106279532243    0.30298809937368
H         -14.75257817761874    0.16418686104758   -0.18514234137908
H          14.34542146065807    1.07755597034395    2.28537981058668
