   110
       -187.46127239
N         -15.76833057279750   -0.23672573636273    3.74895572014891
C         -16.11780441467020   -0.00571803549123    2.67691941849454
C         -16.56702637972636    0.26868186609252    1.35343256847076
C         -17.93383544583276    0.20689069946973    1.06826328261027
C         -18.38881848424259    0.45030989266710   -0.21641535793452
C         -17.48367209058886    0.75588935837733   -1.22534202933599
C         -16.12562129721183    0.81429041682866   -0.95093758387319
C         -15.64610544858861    0.57075616125693    0.33549984613087
H         -18.63175903559281   -0.03321791603945    1.86193219210838
H         -17.83842393016215    0.95355766060609   -2.23048407219838
H         -15.42575529784490    1.07294026542727   -1.73767744901785
C         -14.20163217772661    0.67301477465726    0.63473272704904
C         -13.78138374167914    1.58140073659020    1.60590566509423
C         -12.44054206846261    1.75429610801442    1.89294732649087
C         -11.46560364291346    1.01861198515274    1.21007417110608
C         -10.07280379066029    1.17282791733354    1.48359533134842
C          -9.13824780341547    0.46195334514835    0.80518576295503
C          -9.50504942889589   -0.47352024615991   -0.21324644895791
C          -8.55248534818019   -1.21496408274724   -0.94203394684236
C          -8.97900097114781   -2.18592732934129   -1.84898254425117
C         -10.32255615445491   -2.41085817526763   -2.08191849669637
C         -11.29593486153865   -1.66048461790260   -1.41283007411997
C         -12.69136396712620   -1.85553350351349   -1.64524391876599
C         -13.62378753434905   -1.11410742245715   -0.99771914575878
C         -13.25095175855512   -0.10827438620778   -0.05117072446233
C         -11.86931125423961    0.07414705964076    0.23101857455811
C         -10.88868953089768   -0.68677038265524   -0.46395934068502
H         -14.52286087067455    2.17302895643087    2.13136633811924
H         -12.13750662254594    2.47035876108191    2.64875419616602
H          -9.77545881516553    1.87293548362009    2.25714945534002
H          -8.08832491719646    0.58272569515122    1.04708510394818
H          -8.23753794376525   -2.75393527968848   -2.40064198256787
H         -10.62851379339722   -3.16464914848754   -2.79907113180996
H         -12.99189708331536   -2.61929745909456   -2.35481262977778
H         -14.67796278739286   -1.29007062499993   -1.18032616633817
N          -4.43181088746873    2.96218324574752   -1.26716033693807
C          -4.75134260117225    1.87384945563797   -1.06915610212474
C          -5.20434028254494    0.54122204452497   -0.85337901131280
C          -6.57822579508645    0.30829135803191   -0.94666493062386
C          -7.10253059346125   -0.97431378453397   -0.80398301641124
C          -6.21821127193482   -2.03754724597082   -0.59501626656910
C          -4.85725695557755   -1.81432180895465   -0.50509050838243
C          -4.32122716089089   -0.52813117839174   -0.61484026913795
H          -7.23643698604237    1.14097415317538   -1.16641508615425
H          -6.60705850960302   -3.04396401421269   -0.48829047155517
H          -4.17844917442718   -2.64404937078095   -0.34018373930734
C          -2.86716894687444   -0.35945579427170   -0.49881064108560
C          -2.25242685382318    0.78571961743748    0.01346263508101
N          -0.93847018629399    0.90950004295508    0.06507379425940
C          -0.18714138807870   -0.10517977770087   -0.38243826721028
C          -0.80313271529821   -1.28191762295692   -0.81575236815931
N          -2.11890460983306   -1.40606101956106   -0.87350905333236
H          -2.83387743877021    1.61387942313180    0.40308701220329
H          -0.22394835817785   -2.14859629229920   -1.11864191133318
N           3.98805515939863    3.42369850116539    1.82029702185082
C           3.61562158511931    2.54726959735635    1.17424094491617
C           3.13848963651414    1.45626231536851    0.39109188137118
C           1.77361277646667    1.18411913239196    0.37010862981805
C           1.26499460280427    0.11076919643656   -0.36380409792145
C           2.16061070049920   -0.69237180273610   -1.07741711757765
C           3.51938227884599   -0.42488176722715   -1.05892516268583
C           4.03525246773898    0.64773771657751   -0.33166169410810
H           1.09075346545982    1.81509608273206    0.92772890677835
H           1.79685491179269   -1.52015479580922   -1.67534093071571
H           4.19261704123146   -1.03996720814785   -1.64565372549101
C           5.47485959921516    0.97647708245275   -0.36391049552358
C           5.85142964683946    2.24971240319814   -0.79355065451007
C           7.18143667245620    2.61196004473076   -0.88448676876846
C           8.19040462365394    1.70960804356152   -0.53035801662246
C           9.57383142256393    2.04675750667827   -0.63280616564030
C          10.54107496675143    1.17309938625499   -0.25924196561282
C          10.21811184943104   -0.11950190637200    0.26160337777352
C          11.20521713213186   -1.03575809712567    0.67744603354267
C          10.83196636690333   -2.31513759709491    1.08919733023087
C           9.50291079202648   -2.69156403830826    1.14472026338531
C           8.49259050613789   -1.79334209024803    0.78293057499692
C           7.10878474644338   -2.13315726027511    0.87780985793783
C           6.14053883581917   -1.25352329516012    0.52040375746588
C           6.46225338497049    0.04511341503308    0.01396057306757
C           7.83267533383698    0.41725423019854   -0.06588249678568
C           8.84903715573195   -0.49887849935680    0.32292137697935
H           5.08273512035785    2.95842133743606   -1.08083973696584
H           7.44927496254998    3.60261272450358   -1.23483936188508
H           9.83730110300009    3.02376578861178   -1.02399740781898
H          11.58486082143388    1.44534250123812   -0.36683983059781
H          11.60098011512160   -3.01456213850183    1.39929173957551
H           9.23636107482587   -3.68621352855946    1.48507143961728
H           6.84582075455041   -3.11529585030616    1.25648857855362
H           5.09644757792900   -1.52608153338981    0.62630753929056
N          16.50211116464864   -2.67659654033194   -1.23594127365821
C          15.83123257529513   -1.97789871138597   -0.61369354466521
C          14.94346266620858   -1.14073043837408    0.12027204768761
C          13.58394141066015   -1.46356866667669    0.07888859989282
C          12.63544464481582   -0.66845415174438    0.71427436585371
C          13.07075147182178    0.46288047940869    1.41251801698038
C          14.41324447287993    0.78528931904694    1.45895775788315
C          15.37754274191821   -0.00259906175688    0.82354447358999
H          13.26865214453338   -2.33662301290655   -0.48102262272421
H          12.35064908871810    1.07873864241966    1.93905444267702
H          14.74146856865168    1.66515568288704    2.00142940980756
C          16.78473194494569    0.41479105364738    0.92765197617927
C          17.87165789899786   -0.46032082910368    0.89152679688813
N          19.12168695489287   -0.03254916813275    1.00677134595453
C          19.30665651112382    1.27438602968964    1.16432784942718
C          18.23299956281826    2.14933327314061    1.23249692577398
N          16.98169660950565    1.72590997176675    1.11941284825487
H          17.73362985720198   -1.53044474659039    0.78777500515771
H          18.37876361741643    3.21465411886854    1.38162071609745
H         -19.44991767944130    0.40424446958009   -0.43246344467108
H          20.33076456214816    1.62277246108391    1.24703801104129
