   162
       -276.10482617
O          22.71387382717673   -3.55369237962302    1.36571730788292
S          22.58544612124063   -2.29308255513139    2.06299200250008
O          22.53490015900121   -2.30157664378002    3.50833859861009
C          23.80296233292260   -1.13523355191745    1.48784040487840
C          25.16712441568222   -1.22136826984852    1.64940284898619
C          25.94779491400485   -0.19925145695037    1.11508818971261
C          25.35436032767339    0.86353989922193    0.44544139014622
C          23.97477858712158    0.93565537547275    0.29095761892569
C          23.18159688289578   -0.07815475868097    0.81887200851236
C          21.72164767696396   -0.20037060725400    0.76630376917863
C          20.80643992763972    0.66386930832259    0.17328292026506
C          19.45310574614000    0.36079862541623    0.22748697197224
C          18.98327231012911   -0.79201319025436    0.86452527516329
C          19.90229402229969   -1.66962199608412    1.45506821269989
C          21.23702821183687   -1.34959140390892    1.39467066486141
H          25.61638107690046   -2.05560877935778    2.17330577925817
H          25.97681193327981    1.65094457672025    0.03528799614161
H          23.52740533482246    1.77124492809454   -0.23473352372369
H          21.14044123311051    1.56170395667709   -0.33380630868820
H          18.74367467969227    1.02069430274597   -0.25936793557923
H          19.56674399107993   -2.56804681631733    1.95788911648119
C          17.54513330190826   -1.12430916676750    0.86606582784673
C          17.15781483461928   -2.37676128129309    0.38742603882427
C          15.82459860280398   -2.72668396801764    0.29015360198488
C          14.82356549874002   -1.82894001693603    0.67737240025358
C          13.43666534812092   -2.14421880666437    0.54785942439338
C          12.47736352577298   -1.26740185583282    0.93303068749765
C          12.81328725845168    0.00168109934103    1.50173367630722
C          11.83040728795493    0.92323732987391    1.91107139284316
C          12.21281506843637    2.15956904719928    2.43029440595327
C          13.54768044733021    2.49711563291157    2.56383281594067
C          14.55165486464382    1.60591900482664    2.16849224178887
C          15.93884467292528    1.91534243785140    2.30830980224827
C          16.89923751039263    1.04858142241778    1.90114912483629
C          16.56714879545737   -0.21089994134154    1.30878616056027
C          15.19376709277285   -0.56462237696697    1.20582619159053
C          14.18602645105790    0.34690924610480    1.62540877776794
H          17.92046704597908   -3.07393189411955    0.05772689327850
H          15.54734906052700   -3.69930794049668   -0.10113153096926
H          13.16575293431105   -3.10524443237132    0.12358097217711
H          11.42985591588776   -1.51906669633147    0.81104186594532
H          11.44654619947829    2.85647051742775    2.75205921569874
H          13.82278880811574    3.45967894556168    2.98113373147023
H          16.21111750527541    2.86481263488601    2.75731880355164
H          17.94514192061103    1.29874509363118    2.03919137411269
C          10.39275098084847    0.58045537297544    1.81416055424751
C           9.88533133030242   -0.44739929091434    2.60902109128700
C           8.55017185290648   -0.80306640975339    2.55387329497641
C           7.67497101015310   -0.14924273615592    1.67958288219129
C           6.29255431622764   -0.49630982343583    1.59254441850116
C           5.46543000579731    0.12205576758777    0.71388818194402
C           5.94029319751594    1.14923465375363   -0.16179228888938
C           5.10660121831756    1.79032674567188   -1.09950686441418
C           5.60047931838943    2.85366048026250   -1.85466959209260
C           6.91671310277072    3.26158377257764   -1.74150646097072
C           7.79014136962018    2.61195349719069   -0.86207255332421
C           9.16978778170115    2.96940994695046   -0.76490799947344
C          10.00610700005529    2.32257847323123    0.08371843659175
C           9.53817560074748    1.27219068133587    0.93508950415094
C           8.16992655003082    0.89621357814387    0.85734999957199
C           7.29773771695456    1.55590257378510   -0.05141649192474
H          10.55218870665619   -0.96351768496375    3.29109065869895
H           8.17537884569365   -1.59921250463362    3.18776476340794
H           5.91422399454334   -1.27160446117476    2.25041552520558
H           4.41622606591139   -0.14860503693715    0.67698427478948
H           4.94508543087106    3.34503966512200   -2.56589048571407
H           7.28416462505006    4.07901381012154   -2.35225189068176
H           9.53905220332595    3.76819380703396   -1.39956079386913
H          11.05466776105389    2.59525180283574    0.12769715043788
N           1.84611115614414   -2.93182430424845   -2.48240615534924
C           1.97858680338584   -1.81223987525131   -2.24955611020581
C           2.17620212852103   -0.43490295360846   -1.94482659535123
C           3.47320058549633    0.00396526036082   -1.67630444709733
C           3.72321261390612    1.33236010107173   -1.33968313449000
C           2.64948434013731    2.22327574614057   -1.27956972440113
C           1.35890386438861    1.79052594638877   -1.53190288335408
C           1.09658624016490    0.46352596514612   -1.87271903229882
H           4.29419002301854   -0.69977621977244   -1.75098981780194
H           2.82751606573805    3.26003082003338   -1.01734778453300
H           0.53872974905168    2.49815581504002   -1.48350947867595
O          -3.98144580828627   -0.23642240482954    0.69412846709533
S          -4.05827353048220    0.35882629847688   -0.62164311291711
O          -4.39288444763258    1.76262986272368   -0.72924088434331
C          -2.59315892808547    0.00000411941209   -1.55951004523252
C          -1.31809754846825    0.43126204727409   -1.28651791065014
C          -0.28462168663407    0.02644200997361   -2.14253702069548
C          -0.58554723666445   -0.78138506707839   -3.24276550299699
C          -1.88133052897466   -1.20206873751964   -3.50433121155792
C          -2.90914694637532   -0.81325614260261   -2.65064999218418
C          -4.33011796291456   -1.15523290712160   -2.72963344879660
C          -4.97380298309163   -1.94589704622439   -3.67691551014660
C          -6.34098329078016   -2.15679971775138   -3.56858807676439
C          -7.09211989183682   -1.59397166429491   -2.53250777054430
C          -6.44482198468866   -0.80786657935622   -1.56796567844793
C          -5.09228456951817   -0.60660604570922   -1.69515228619989
H          -1.11309048176594    1.04646752953081   -0.41921675753261
H           0.20986700140520   -1.07706123267710   -3.91694395187107
H          -2.08356172421351   -1.82766101979648   -4.36579923691912
H          -4.41854018871100   -2.39199704858161   -4.49387773771320
H          -6.84406244092287   -2.76109628505903   -4.31542684963236
H          -6.99270161799684   -0.39207556057845   -0.73179585784308
C          -8.53862763576847   -1.86207878063518   -2.42843823483666
C          -8.97571546061758   -3.18668563722905   -2.47837622907831
C         -10.30928808426856   -3.50935381572776   -2.31386962299178
C         -11.26146613080690   -2.50816912600755   -2.09117328981794
C         -12.63991730813042   -2.81255904539887   -1.87367598612672
C         -13.55153981447802   -1.83227431881614   -1.65874209114802
C         -13.17385850806098   -0.45257468857748   -1.65405936336218
C         -14.10435646239313    0.57864469291224   -1.42466257536941
C         -13.67434228440144    1.90531622643461   -1.39199778884407
C         -12.34755996165388    2.23328600475635   -1.60172981300200
C         -11.39614756635051    1.23497895927078   -1.83934924944177
C         -10.02346403423678    1.54060300766451   -2.08496072055843
C          -9.10884496687416    0.56027499640138   -2.28817021179683
C          -9.47497511617482   -0.82245415433222   -2.25181901219950
C         -10.84639862919411   -1.15085483589955   -2.06946843454461
C         -11.80610967963280   -0.12343225182488   -1.85534012637547
H          -8.24659313216484   -3.97784711455984   -2.61718472790071
H         -10.62187615722747   -4.54747636192898   -2.34128607015639
H         -12.94208123996264   -3.85458458163975   -1.87611530473561
H         -14.59088203516478   -2.08436331725709   -1.47972652750442
H         -14.40237485576759    2.69074881052306   -1.22042198279686
H         -12.03787823152847    3.27253361557616   -1.58636241916144
H          -9.72516615199893    2.58322514372410   -2.11270187417540
H          -8.07821481406030    0.82201725090819   -2.49821115587824
C         -15.54524201541776    0.28637260984431   -1.24870847828737
C         -16.26912344320329   -0.23632754746972   -2.32025988704386
C         -17.62724794246418   -0.47648422816359   -2.21738487133970
C         -18.31199869534958   -0.19857179593438   -1.02908752847006
C         -19.71146878252945   -0.44415736513419   -0.88576719820371
C         -20.36244832939100   -0.15817171889154    0.26885199775874
C         -19.67897131750822    0.40548538802892    1.39273987965581
C         -20.33485443015176    0.72326378350927    2.59878207847333
C         -19.59599215428463    1.18603292353061    3.68759578808157
C         -18.22955065262194    1.37613362793124    3.59970727179688
C         -17.54954952628374    1.10895910786020    2.40639330562459
C         -16.14096223733601    1.30991957612394    2.27865821006100
C         -15.49619539136283    1.05185188965055    1.11443291120797
C         -16.19827007401890    0.56452906009024   -0.03290275616035
C         -17.59485088406575    0.32648115056569    0.07718140087122
C         -18.27589671552816    0.61303385671047    1.29227015401485
H         -15.75613228218668   -0.43833467057170   -3.25434200449670
H         -18.17116579566036   -0.87798962455564   -3.06546553028613
H         -20.24668914931644   -0.87463252900433   -1.72564953738822
H         -21.42112376583058   -0.37386914515980    0.35869215678238
H         -20.11202823616332    1.42300207967045    4.61194217639396
H         -17.67789549214910    1.74574889326603    4.45719567128853
H         -15.59412960223584    1.67416283004659    3.14202439874758
H         -14.42500781960592    1.20260727808173    1.03941514589811
N         -25.61493657764776    2.31427220903041    0.34662402941971
C         -24.91321209673620    1.78908503432049    1.09213203024367
C         -24.04423738201387    1.13446468339582    2.01187812622709
C         -22.66099698314216    1.23644195065780    1.85318834120214
C         -21.80054501549349    0.59817908350410    2.74460358377588
C         -22.34212176232746   -0.12821242395782    3.80731755963375
C         -23.71667291564892   -0.23097588816143    3.96446808182494
C         -24.57323673391444    0.39245122008803    3.07179883710439
H         -22.25851520695880    1.83468947544625    1.04403920092413
H         -21.67960419008998   -0.62838936898441    4.50479669484416
H         -24.12309193211400   -0.80385996340850    4.79040559195924
H          27.02546908189266   -0.23518587547600    1.22313308438265
H         -25.64719571199253    0.31302376650299    3.19044591597334
