   124
       -224.21232936
O          19.67068529935112   -2.11035078836343   -2.86107736828975
S          20.00338316844360   -1.23735018307711   -1.75747251424605
O          20.52597235048103    0.07899214714647   -2.04908284498472
C          21.04011999261145   -2.07694974301166   -0.58557205828482
C          22.32866409966805   -2.51604788196506   -0.78825836508454
C          22.96563142176856   -3.16123130468844    0.26907115896535
C          22.30954319137174   -3.34665323197690    1.47963591269246
C          21.00815460675875   -2.89650870049566    1.66840374117330
C          20.35818281195788   -2.25045053703975    0.62128582323883
C          18.99635308845716   -1.71055792372403    0.60295187008893
C          18.04835453162235   -1.72327289156200    1.62303596002201
C          16.79908679460821   -1.17264021170727    1.39086465608641
C          16.45509922003282   -0.59937497129358    0.15826802140514
C          17.41198227154847   -0.57932644189362   -0.86799250426470
C          18.64493434168540   -1.12999271466854   -0.61764784135290
H          22.82769051373879   -2.36565381921697   -1.73723651574537
H          22.82018284048702   -3.85197567268690    2.29174673443242
H          20.50949511672307   -3.04958546928696    2.61839342366635
H          18.27807711013569   -2.16238617756244    2.58693178361195
H          16.05293234042195   -1.18535107532157    2.17808698323206
H          17.19652599580871   -0.15710875082779   -1.84112171680461
C          15.09873073097962   -0.07211760897200   -0.02659981267853
C          14.68046531635017    0.62765254015192   -1.16297147243868
N          13.42906166801870    1.02356900136083   -1.32672798907422
C          12.56004252818052    0.74712335026042   -0.34704790916406
C          12.98628266887336    0.09881264561850    0.81609847296736
N          14.23138281992772   -0.30953418975801    0.97027309338331
H          15.36935293176795    0.87252339852097   -1.96465047257362
H          12.28605431484614   -0.09875194168674    1.62187473298815
C          11.16219905500547    1.10812858327215   -0.55895008567585
C          10.71642763453858    1.67431293909673   -1.75580077076793
N           9.43998102610441    1.93713919349696   -1.97367529810638
C           8.57124480687189    1.66052229710887   -0.99030964458376
C           9.02117826847074    1.09027022940875    0.20624445453595
N          10.29657034922513    0.81678759116948    0.42108411610145
H          11.42016372901108    1.89873059095037   -2.55129538235489
H           8.32365012340593    0.80571681775311    0.98757717081278
C           7.14637858315063    1.83269081190217   -1.29595759000641
C           6.73314390066437    1.48367051862807   -2.58612413284666
C           5.39716272091982    1.43604087220357   -2.92484333135936
C           4.41319756545091    1.71777774357383   -1.96808951922344
C           3.02150081390612    1.60738458338039   -2.26235181043743
C           2.08088428495546    1.83692473693190   -1.31201869662231
C           2.44347958121080    2.22474178443696    0.01575267384983
C           1.48812912304154    2.43136210799365    1.03244463615919
C           1.88941660919491    2.95244407322746    2.26322117392370
C           3.22069966012954    3.20994918467990    2.53169563050702
C           4.20686140164152    2.92665901326389    1.57921160279932
C           5.59556234277323    3.12692444369750    1.84177484465264
C           6.54107226413286    2.78979011214616    0.92837807412393
C           6.18832317108717    2.23828286321792   -0.34301280328199
C           4.80803763585280    2.13907857994723   -0.67154914775318
C           3.81832046602399    2.43839786910145    0.30463325333625
H           7.49199722883770    1.21878798167625   -3.31454194146368
H           5.09937652244931    1.14827978342187   -3.92707337928762
H           2.72909499780475    1.32721748272525   -3.26880180488412
H           1.02884883235392    1.75453148264016   -1.56094022986799
H           1.14378262390846    3.12306100581058    3.03213456609811
H           3.51062597399263    3.60518375122586    3.49900729341949
H           5.88201700920248    3.55502496305425    2.79655156360204
H           7.58747100143295    2.97271368362120    1.14497587865626
O          -3.92488525076302    4.41586305052063    0.46122763735378
S          -3.75061886593208    3.33306787459873    1.40352810614038
O          -3.85149130898864    3.62068510363647    2.81714953843901
C          -2.25574771969864    2.43626662648095    1.05532880199552
C          -0.96716369642265    2.89620562377809    1.18732871891129
C           0.08107859599244    2.02747194987536    0.85577727433995
C          -0.21628072593091    0.73171570722069    0.41805090855707
C          -1.52271672038248    0.28427673279909    0.29695000438029
C          -2.56695032150788    1.14581683533299    0.61974145163010
C          -4.00266734678546    0.87216916506762    0.57723205017429
C          -4.64066695034990   -0.31103701039099    0.21296496659154
C          -6.02290901886529   -0.36971234637209    0.25015188638355
C          -6.80396179502246    0.72775806032614    0.63936559437924
C          -6.16279232958755    1.91910581072223    1.01179172491939
C          -4.78984065259514    1.95672310867187    0.97128279159223
H          -0.76561787044601    3.90552076977118    1.52394056685262
H           0.59854277097924    0.05211894863780    0.19445894267939
H          -1.72146262369680   -0.72717399421333   -0.03758825312502
H          -4.06651462217123   -1.17746385743683   -0.09413329589380
H          -6.52915293317379   -1.28756592044843   -0.02875875099903
H          -6.72108058693777    2.78746899718226    1.33783171130235
C          -8.26394856011552    0.58254978912994    0.64544969863927
C          -9.15722788170314    1.65395928391304    0.73470216032107
N         -10.46956441980254    1.48187819732051    0.72147927109205
C         -10.92675739949449    0.22799192844451    0.62131694664832
C         -10.03652406926192   -0.84603971281934    0.52514303745057
N          -8.72908181353622   -0.67195638781089    0.53395646760536
H          -8.80704577702789    2.67871352805107    0.80468913452078
H         -10.41079572174455   -1.86139646659876    0.43813149560534
C         -12.37193133525080    0.02564959833541    0.59891681415417
C         -13.27653811864511    1.08860058820518    0.64566892476162
N         -14.58322857586984    0.89988246899790    0.57738259518247
C         -15.02440425316965   -0.36052827729522    0.45848795750613
C         -14.11802261694282   -1.42705710782111    0.48487048813608
N         -12.81101321505848   -1.23909854038565    0.54205824370428
H         -12.91913752586754    2.10973056268024    0.73524750075927
H         -14.46445054989168   -2.45559418929056    0.49102774760715
C         -16.47909463364971   -0.55245964859043    0.40781412269826
C         -17.26001903136846    0.25625935959969    1.23943337181473
C         -18.62401636075338    0.07586753743199    1.34436941344223
C         -19.26654477938354   -0.93100116085177    0.61243776189831
C         -20.66908807072001   -1.17520595869821    0.73554243492047
C         -21.28028296000314   -2.14780588205628    0.01436810599823
C         -20.54438859633303   -2.95685738884359   -0.90663801698429
C         -21.15640893524929   -3.96283553307085   -1.66331680270856
C         -20.41785435976881   -4.72625404099371   -2.55418398921275
C         -19.05946129861715   -4.50357113573639   -2.71749208908845
C         -18.40801722809302   -3.50984999603206   -1.97811826604099
C         -17.01669103480392   -3.22903475747980   -2.14014886939500
C         -16.39702415224302   -2.27971662885051   -1.39499795237964
C         -17.10136788299985   -1.52311955987731   -0.40527296608997
C         -18.50377237414756   -1.72613130889983   -0.28308908479480
C         -19.15050207409540   -2.72914931350454   -1.05460265445291
H         -16.76401177378678    1.02204371993882    1.82608362490856
H         -19.20550125725593    0.70564972351215    2.00881759699474
H         -21.23652835560664   -0.56157994270037    1.42746972587745
H         -22.34510282602788   -2.32764726262015    0.11970520644046
H         -20.90861421138511   -5.50232460204568   -3.13131749117616
H         -18.49155304830991   -5.10092606231198   -3.42257576841258
H         -16.46221278715072   -3.78773701869222   -2.88693656104429
H         -15.34916467821268   -2.06300292975067   -1.56907327349795
H          23.98005859512106   -3.52126214336390    0.14407539618785
H         -22.21978747260609   -4.14284309141037   -1.54751818314076
