   110
       -187.46114877
N         -14.56378125913614    4.35659761538391    1.86524015104306
C         -15.17304614677957    3.45892938948333    1.48093453506983
C         -15.93855579939653    2.35935527601235    0.99758004854821
C         -17.29244199516061    2.54446143329953    0.70374770080018
C         -18.04898804468184    1.49370776322509    0.21378881859738
C         -17.46134619075590    0.25003145256486    0.01711173251366
C         -16.11772039846660    0.06012877207079    0.30217915944027
C         -15.33591353693869    1.10703956606793    0.78926413739942
H         -17.74169185417941    3.51814833449311    0.86114416694341
H         -18.05364556611066   -0.57629434508551   -0.35923495905924
H         -15.66850914570529   -0.91699307002081    0.16369779111314
C         -13.90732713180739    0.89558182752872    1.10796165569119
C         -13.46147936137387    1.13400010290191    2.40748300655662
C         -12.14653416255707    0.90413707692116    2.76652250163273
C         -11.22258327906252    0.43430227230181    1.82633741060496
C          -9.86581432770854    0.15437468841219    2.17278006814517
C          -8.97618188876360   -0.27897145568398    1.24545120351004
C          -9.35256185543994   -0.46130623131456   -0.12285075651779
C          -8.44283030699035   -0.88833137899885   -1.11119239835075
C          -8.89381298307745   -1.12868286415322   -2.41010408637587
C         -10.21241285639418   -0.91698149701683   -2.76358666836574
C         -11.13600370788385   -0.45672510030699   -1.81860759972064
C         -12.49465319505705   -0.18568801513602   -2.16374929990535
C         -13.38244117900262    0.25160630573429   -1.23730230582332
C         -13.00070667818755    0.44623113389620    0.12769795476720
C         -11.64547754099038    0.21419799966881    0.48976043628979
C         -10.71034728936262   -0.23707597848409   -0.48261556815144
H         -14.16690927825749    1.48662526747112    3.15175525448336
H         -11.82527314177916    1.08341155420223    3.78665226287691
H          -9.56061735177632    0.28969238404051    3.20506203616159
H          -7.95826644575933   -0.50809431994457    1.54021067576502
H          -8.18430507003990   -1.45819072491437   -3.16159141976954
H         -10.53532686882747   -1.09467425169848   -3.78351474325336
H         -12.80093481659304   -0.32951565078355   -3.19458289567647
H         -14.40318650568477    0.47229505906198   -1.52837666055881
N          -3.66563365086698    1.87457994102096    0.89032753169764
C          -4.17784862422411    0.93310882620343    0.46920981615420
C          -4.87324313156744   -0.18887200871437   -0.06452160167473
C          -6.24878836260668   -0.04570911586825   -0.26421068502966
C          -7.00351069103020   -1.06631946057716   -0.83683449886157
C          -6.35150108371047   -2.24142769548016   -1.22473000544136
C          -4.99217753769266   -2.38898474032406   -1.03065811280335
C          -4.22357012280238   -1.37872196858163   -0.44378065868028
H          -6.71972072757335    0.89443698011998   -0.00108631544016
H          -6.92203250670066   -3.04664046181345   -1.67363526842173
H          -4.49536775539073   -3.30274190999673   -1.33811222936107
C          -2.78014224428062   -1.60136081475265   -0.29731609696835
C          -1.97448589498539   -0.99397383476107    0.66889464379936
N          -0.66804437681998   -1.18518605803497    0.70985392844797
C          -0.11386209013690   -2.00337605300661   -0.19472861919380
C          -0.93421376852214   -2.68258464381777   -1.10013595837106
N          -2.23899332463480   -2.48052295951841   -1.15304775424638
H          -2.39310948792905   -0.34712296332203    1.43146254719612
H          -0.53243075410331   -3.40221226490792   -1.80617316152063
N           4.71906263695884   -4.16854509494996   -2.90286366485387
C           4.17107162228565   -3.57458879227384   -2.08342166633040
C           3.47133151647466   -2.84410621007609   -1.07979978184137
C           2.07609832541448   -2.83054475309444   -1.10785772755995
C           1.35005978922781   -2.10359989873562   -0.16512974698826
C           2.05684318642088   -1.41013364505935    0.82713884616892
C           3.43740942749842   -1.41617682272581    0.85507988188935
C           4.17324309814634   -2.11444243409506   -0.10460880618884
H           1.57349594858806   -3.38597067430030   -1.89090074671145
H           1.50058363269916   -0.85525364876638    1.57443110290926
H           3.96226362314147   -0.88032022950763    1.63800018821075
C           5.64898831423040   -2.09152364585736   -0.08677377564500
C           6.34985915988788   -3.29584736538763   -0.02274939681347
C           7.73009695299348   -3.31811453960059    0.04341386809601
C           8.46350953221940   -2.12603052171564    0.04318240823686
C           9.88801038206133   -2.11441663116207    0.14406190940597
C          10.58598324461299   -0.95178491090228    0.13931935198850
C           9.92777652465497    0.31294889016760    0.02031180067046
C          10.62909779898066    1.53457365407948    0.02087003970599
C           9.92697587894357    2.73848512084693   -0.03195181446629
C           8.54809379752142    2.76062587453810   -0.12473016045440
C           7.81826799009265    1.56712302275668   -0.14801486369856
C           6.39582418231896    1.55487866254765   -0.26993160395756
C           5.69843917239749    0.39231775340236   -0.26299300177670
C           6.35435282466279   -0.87115228759467   -0.11870752742703
C           7.77428644937561   -0.88878119086687   -0.04704237330768
C           8.50803384067832    0.32989130782901   -0.05918308081879
H           5.79672165287483   -4.22827940362097   -0.00209548209867
H           8.25292602674268   -4.26619722193618    0.10492267644461
H          10.40394050847027   -3.06459548299406    0.23391772019448
H          11.66553116130844   -0.96807612711463    0.23838812044123
H          10.48042320387832    3.67141708899416   -0.02554572922541
H           8.02402389054055    3.70822254018943   -0.18408789087709
H           5.88065655684104    2.50378399652139   -0.37597270034342
H           4.62087548907753    0.41015269580935   -0.37978194825054
N          15.06853334232400    3.64064909176572    3.20115704006386
C          14.67965948046034    3.09065302710413    2.26721569394286
C          14.12703779770807    2.40142367369944    1.15035179949799
C          12.73432137645576    2.30226964829188    1.09129422693466
C          12.10554589570739    1.58947274137775    0.07542482587563
C          12.89578484187787    0.97021943437077   -0.89745926628747
C          14.27325280047330    1.07274597695224   -0.84931612756883
C          14.91939251655263    1.79108710953421    0.16117780082074
H          12.14014706049016    2.77262129815406    1.86656985948674
H          12.42294993746823    0.42700085546494   -1.70768676179104
H          14.87986227822781    0.59530342794156   -1.61124436096795
C          16.38855496924728    1.86315772913215    0.12668812443638
C          17.13593639517730    2.92336682051059    0.64277542347489
N          18.45969040311548    2.95170762607353    0.56788920236290
C          19.05818119298438    1.92470528709629   -0.02723957644689
C          18.32439005599150    0.88024993147311   -0.56953103901557
N          17.00089716712095    0.84858450699569   -0.49822834403375
H          16.65900733101399    3.77791790626105    1.10896121432528
H          18.80904907962283    0.04966472349130   -1.07314312521552
H         -19.09819017399710    1.64221117282441   -0.01379308342959
H          20.14174220502287    1.94544975107260   -0.07848879890026
