   150
       -275.65104171
O         -22.99799685651202   -3.90291520239507    2.84919390573774
S         -23.51243748702050   -2.80218649949223    2.06617142555080
O         -23.97549265803039   -1.61710518346510    2.75336808868108
C         -24.73143582782681   -3.37284224540055    0.90806670560750
C         -25.96677625419011   -3.90326014735337    1.20309033582402
C         -26.77288152319665   -4.29588201298942    0.13735345700017
C         -26.33115480846646   -4.15001087320008   -1.17172506677857
C         -25.08057642240997   -3.61230974079137   -1.45277719551291
C         -24.26356977027256   -3.21611701615689   -0.39871479653609
C         -22.91916961576298   -2.63659842729113   -0.47004050439026
C         -22.16392296080019   -2.34799749518309   -1.60258308330598
C         -20.89728690501878   -1.80243768128733   -1.45285277408450
C         -20.35593958098264   -1.53301909406604   -0.19131686570013
C         -21.11579993707182   -1.81900365335243    0.95182131161889
C         -22.36713784527995   -2.35888391923478    0.78205641536710
H         -26.29828345559296   -4.01170054612212    2.22801409821144
H         -26.97155240412516   -4.46136339697360   -1.98930762629156
H         -24.75014441727630   -3.50613673035054   -2.47946715426553
H         -22.55576989044375   -2.54237868384581   -2.59410465579789
H         -20.32223760956660   -1.56305530569901   -2.34024259845237
H         -20.72196119155193   -1.64183055647397    1.94475972473893
O         -15.50306462718470   -0.61798158351455   -3.12746383374691
S         -15.30888345419993   -1.12044920967148   -1.78566057641300
O         -14.86790210773757   -2.48603945715586   -1.61310679858015
C         -16.74387302294378   -0.79408294226950   -0.79107038105263
C         -17.99008640836657   -1.34812326631342   -0.94848971677349
C         -19.00535228347018   -0.96199645779697   -0.06157277296177
C         -18.71351120294107   -0.03330650107239    0.94320052584501
C         -17.44706144527580    0.51462079426496    1.08578647479874
C         -16.43637341875869    0.13298873270112    0.20784927609790
C         -15.04232156177318    0.57718812705322    0.18007254246310
C         -14.40412122823218    1.47420767905922    1.03358433375362
C         -13.06183572233168    1.75458731640361    0.83737470278082
C         -12.32549159178327    1.16617249926806   -0.19927180552275
C         -12.96369569958800    0.25763871483223   -1.05680924548259
C         -14.29361927160635   -0.00874275633389   -0.84404503224964
H         -18.17346264730812   -2.08021821454097   -1.72486036979918
H         -19.50008285021305    0.28344392821609    1.61883157237546
H         -17.25393876011710    1.23441005059047    1.87256670233004
H         -14.94693980360464    1.94762905087947    1.84339995542238
H         -12.55435738990074    2.44868624929315    1.49871614619009
H         -12.42951921165000   -0.23942601041371   -1.85645284752612
C         -10.90602582199932    1.50193971976025   -0.34967083549038
C         -10.17057393171190    1.25234680342485   -1.51080949913413
N          -8.87704943494055    1.51284347845728   -1.59170715221975
C          -8.27217001490624    2.03344853623236   -0.51641883440487
C          -9.02918560413489    2.37856774229726    0.60745182535191
N         -10.32039315941987    2.10888527372821    0.69191534637621
H         -10.63547071129171    0.84172567172155   -2.40115205238427
H          -8.58464488152776    2.90739915477484    1.44447660977919
C          -6.83041660023479    2.28680833233625   -0.64356107736999
C          -6.38311539229106    2.80019914999271   -1.86422214695867
C          -5.05528886097623    3.11332090381655   -2.06832377005541
C          -4.11402012942394    2.91013090026643   -1.05153834658629
C          -2.73285364253025    3.21967754410083   -1.23453381780804
C          -1.82381285163557    2.99231343537811   -0.25448967101963
C          -2.21018965349005    2.43496334122212    1.00472652387533
C          -1.27974714824691    2.16001281811778    2.02596566928586
C          -1.70049235960531    1.55027758945868    3.20700609991610
C          -3.02930311485058    1.22767997783466    3.40955410106691
C          -3.98445668336495    1.49182413428177    2.42129296393989
C          -5.35525833091518    1.12758582877875    2.58110075469879
C          -6.26842892855036    1.37461591678119    1.60916942788209
C          -5.90459796242705    2.02289970459372    0.38712230736770
C          -4.53472098343777    2.34989594996071    0.18309274983566
C          -3.57730123233216    2.09915195401271    1.20496409435027
H          -7.10975814808074    2.96209019239081   -2.65295720830914
H          -4.73262939930067    3.51961597318928   -3.02059885807355
H          -2.42139580572024    3.63374628738374   -2.18773667703958
H          -0.77700048564521    3.21648142158250   -0.42581821813205
H          -0.97055409751709    1.34071989694088    3.98127247175050
H          -3.33699826391869    0.75933781625992    4.33792409347849
H          -5.65126456177073    0.62754585838293    3.49721120529189
H          -7.29334379261886    1.04835613889328    1.74227474623194
O           3.61823502211048   -0.33155882579895    0.56205325037747
S           3.76238305489988    0.57412731920050    1.67914446094741
O           4.00593153902979    0.02699757320572    2.99407677536684
C           2.41243622504937    1.72587339791439    1.72080216365943
C           1.08741672426563    1.42387342513224    1.91964949421758
C           0.15617621140378    2.46764331656899    1.85713931658424
C           0.60207060693678    3.77300201022659    1.63410942457668
C           1.94816105473637    4.05996957039136    1.45119100692875
C           2.87499089539274    3.02188173569597    1.48018690408780
C           4.31974824353058    3.08847303719500    1.24978149428875
C           5.09857071918058    4.20628024558391    0.96453730876309
C           6.45323344953766    4.04412742973221    0.71251394789988
C           7.06168675000860    2.78450317503776    0.73531555883274
C           6.28587243341584    1.65985264690407    1.05237112572951
C           4.94803500458554    1.84176927904452    1.30091537086898
H           0.76504072575994    0.40429335704130    2.08991464428594
H          -0.12079145125661    4.58096521169782    1.61396725433996
H           2.26627653218525    5.08148156558331    1.27770221138367
H           4.65608948290985    5.19509264127174    0.93006587126429
H           7.05426285624600    4.92129800120768    0.49992635899623
H           6.71866539970436    0.66752541108154    1.06933113125654
O          12.14073301843564    0.62118141104135    2.54857229753109
S          11.72633145158139    0.27835849014596    1.20715628772241
O          11.25944718772912   -1.06285747904756    0.94276165116714
C          10.55968469563195    1.47298061744689    0.59729326286859
C           9.26239470579524    1.63890894788615    1.01579078298854
C           8.48162488383344    2.61892593265185    0.38524334086476
C           9.05653596645612    3.40172130767341   -0.62205844241143
C          10.36937491746146    3.21943894362217   -1.02998594244123
C          11.13883748803334    2.23030825789170   -0.42410545376817
C          12.50674707987164    1.82490024442139   -0.74521506564433
C          13.35052968624252    2.34144260841591   -1.72398143859459
C          14.60066400345989    1.77190315608797   -1.91614293353060
C          15.04019347774288    0.68391820077016   -1.15276173743942
C          14.19815632070970    0.17827031342400   -0.14653443332008
C          12.96810130617193    0.75641055659509    0.02993516857249
H           8.85919740005554    1.03063208678551    1.81572899414754
H           8.45206831578535    4.14949589984913   -1.12333288001021
H          10.77920402413793    3.83160125666372   -1.82491664767417
H          13.03616455851346    3.17570339205065   -2.34049136533531
H          15.24042261868443    2.18728172152367   -2.68615393799250
H          14.52199783578006   -0.65845689367195    0.46054670687005
C          16.33411071788788    0.02961694970610   -1.37526030533658
C          17.20843890065537    0.34927525023053   -2.41659641538226
N          18.35992519239673   -0.27798766514637   -2.58979280949408
C          18.68608435371305   -1.24513720732435   -1.72241793100849
C          17.79061284385308   -1.59747085496308   -0.70653564546907
N          16.64310516113900   -0.96839745818950   -0.53417998720849
H          16.97530749061689    1.12469676322080   -3.13933271663365
H          17.99292797172707   -2.43239831933172   -0.04351294979399
C          19.93900157607952   -1.96538586608321   -1.97772405435537
C          20.24979394743826   -2.24133476853084   -3.31310496172670
C          21.34085437355640   -3.01399648792070   -3.65375580801632
C          22.17294804769920   -3.54533353283132   -2.66012484468098
C          23.27995584369393   -4.39137479246234   -2.97663331875683
C          24.08424786116417   -4.89058785684594   -2.00534366266876
C          23.86220182889336   -4.57535421655351   -0.62856132074013
C          24.68720625772918   -5.07075685012079    0.38775657726513
C          24.45202844378900   -4.74065031774748    1.71346602083671
C          23.39687371409975   -3.91029188304212    2.05787771905077
C          22.54591695422320   -3.39599853834713    1.07307927976229
C          21.46664485725468   -2.51336211581566    1.38455820940327
C          20.63845627963942   -2.04308150519951    0.41836975044065
C          20.79902281117007   -2.41467404520966   -0.95406264319374
C          21.91271797686998   -3.22860635423305   -1.30058214291838
C          22.77147726446231   -3.73260041914051   -0.28694145654336
H          19.59421013302025   -1.85302167732998   -4.08521654703778
H          21.55014899157927   -3.22720549944015   -4.69632612887398
H          23.46031764812818   -4.62946724307824   -4.01974384332138
H          24.91849579096726   -5.53715930548800   -2.25659561802743
H          25.10202833471774   -5.13306458806723    2.48783641390107
H          23.22466483494447   -3.65303589561352    3.09737226062805
H          21.32775092594115   -2.21445369780826    2.41823308045007
H          19.85221966115883   -1.34456299839624    0.68124628630173
H         -27.75119264682169   -4.71888791744368    0.33280908406506
H          25.51797635456186   -5.71856936089512    0.12947231597517
