   104
       -180.10796068
N          17.28088984588081    3.10408748062400    1.11337843749358
C          17.45824372022615    2.11137720522510    0.55715103856019
C          17.74953815691439    0.89019681923782   -0.11395555933667
C          19.08456171980628    0.65200325169838   -0.46000131967815
C          19.45470015122475   -0.53468043642261   -1.06796186360240
C          18.49484656780489   -1.50747145753270   -1.32296366745856
C          17.17264676720836   -1.28103247771626   -0.98371514935611
C          16.76935189225071   -0.08148746690843   -0.38905136329058
H          19.82789812603430    1.40972900920069   -0.24049775402885
H          18.78059640650327   -2.44365745290110   -1.78889761213389
H          16.42052556071666   -2.03696119924303   -1.18143039938529
C          15.33953784283945    0.08988702765376   -0.09167516173375
C          14.68384033047741    1.32348716657047   -0.06313414812646
N          13.38409740921783    1.42467285374137    0.16408216375158
C          12.70192839302469    0.29258981596088    0.37204179181902
C          13.35118338281638   -0.94427967782548    0.32870283078091
N          14.64686856271741   -1.04450446215800    0.09444888419669
H          15.21472931433851    2.24941293210227   -0.25301272891992
H          12.79401570738933   -1.86305346966000    0.48380337932985
C          11.26459877130035    0.40384499244812    0.60372881954163
C          10.61152316044622    1.63869256440141    0.62545493392912
N           9.29931225983518    1.73419513571891    0.75195830469436
C           8.60149127330343    0.59518476885768    0.86192975848401
C           9.26777602764373   -0.63260448032813    0.93691222174184
N          10.57946611713605   -0.73054793794516    0.79663755690443
H          11.17633086796745    2.56027251461250    0.52515173926440
H           8.72679358636406   -1.55169682192480    1.13840333347138
C           7.14087902480920    0.72900312156014    0.96455674708247
C           6.64438232520245    1.74996876430632    1.77920459047425
C           5.28824984553004    1.92155166154262    1.96838410844472
C           4.36881504031073    1.07991449990855    1.32931588248730
C           2.96024073464937    1.24113667332438    1.49432170102222
C           2.07745111260369    0.44396060464456    0.84267488469919
C           2.51859349410464   -0.59998226203041   -0.02977884206439
C           1.62208464972194   -1.42547725542607   -0.73725003101600
C           2.11293437419219   -2.38679398381025   -1.62113337823006
C           3.47062354348692   -2.56102018222414   -1.80916466642189
C           4.39118953060884   -1.76088814739822   -1.12311878400347
C           5.79725631229808   -1.88199392946616   -1.33500655997875
C           6.67981543535962   -1.08899848562923   -0.67825234111020
C           6.24499291728822   -0.11051817406854    0.26996427035710
C           4.84546059288560    0.06142668468452    0.46306247752478
C           3.91763447104486   -0.77046380181414   -0.22373263711788
H           7.35213393608064    2.40422213962465    2.27663111626192
H           4.92551650056951    2.71317243152305    2.61488564117366
H           2.60649639804777    2.03141297335595    2.14807095357505
H           1.01229858856405    0.60415234193312    0.96588743880565
H           1.41047435748510   -3.01598915401286   -2.15713986740403
H           3.83008475192857   -3.31756521693148   -2.49805434819957
H           6.14746862334734   -2.61534594144500   -2.05372102814082
H           7.73857694332761   -1.17456666996688   -0.89366281371879
N          -2.84576433011889   -1.63080047292036    3.08093073730493
C          -2.44515570403330   -1.44726385436713    2.01700534093947
C          -1.87474097565177   -1.25814974882698    0.72622822040644
C          -0.48649653733676   -1.39423706680269    0.62295423730381
C           0.15712998197360   -1.28410011885206   -0.60578470445155
C          -0.61748192894306   -1.06737440933637   -1.74952413705322
C          -1.98666395384610   -0.92294635645811   -1.65274233106366
C          -2.64684126202915   -0.99588829142587   -0.42111845353187
H           0.08582078898392   -1.61559767813576    1.51651336630640
H          -0.13341742314023   -0.99000660212721   -2.71656167972887
H          -2.57682341742743   -0.73949881824938   -2.54407660659070
C          -4.10046875338187   -0.78267838172021   -0.41746176047665
C          -4.83839763061513   -0.31282805998399    0.67248215547134
N          -6.13471744386950   -0.06805422045726    0.59179172992954
C          -6.74508755608242   -0.28717973558981   -0.57970903711359
C          -6.01244510938898   -0.77123513193833   -1.66669041988076
N          -4.71462454573825   -1.00566954438523   -1.58900424430490
H          -4.36783236490347   -0.10310193485782    1.62626655841610
H          -6.48396893681845   -0.98183957035543   -2.62162089638529
C          -8.17976061198197    0.01232134156242   -0.64881319131764
C          -8.86390541892262    0.20110663132629   -1.85174631338327
N         -10.16331631736171    0.44593547079773   -1.89256894089286
C         -10.82439162215192    0.50785339595174   -0.72946403925029
C         -10.12387422576262    0.39516957697310    0.47655266632118
N          -8.82786355768150    0.14422353093727    0.51672234561590
H          -8.35043041571406    0.16875448720312   -2.80783634059640
H         -10.62125296878683    0.54229150323525    1.42986861471595
C         -12.26194284816760    0.79968820117928   -0.80958964005184
C         -12.66415210402679    1.75153546404331   -1.75140251852813
C         -13.97984943381738    2.15559745330435   -1.85051646923672
C         -14.95587254860259    1.60918123085269   -1.00770139667309
C         -16.32079009898107    2.02854310246792   -1.06454094952417
C         -17.25998697788596    1.47985049178167   -0.25457224138660
C         -16.91974244171123    0.45197806108609    0.67935825817151
C         -17.87586624683158   -0.13514434023309    1.51599759334034
C         -17.51769708687071   -1.13616319693505    2.40570217709032
C         -16.20584064615076   -1.57745561730466    2.48113934294438
C         -15.21820495909204   -1.01527338626118    1.66438754015082
C         -13.86168082039054   -1.46272919165325    1.69235371974481
C         -12.91511722342761   -0.89593261169067    0.90310476970411
C         -13.22526956802259    0.18196562489966    0.01438867005157
C         -14.58091798482745    0.60262205708019   -0.07907277730866
C         -15.57055635489524    0.01518321430075    0.75458543105862
H         -11.90947726362008    2.18731219854582   -2.39737578225895
H         -14.26354436930539    2.90762882816370   -2.57870183295305
H         -16.58899352444323    2.80270968433753   -1.77595590648701
H         -18.29294535157162    1.80812455120376   -0.30437745569925
H         -18.27187467479210   -1.58036604370570    3.04614434056165
H         -15.93684397064802   -2.36572186945255    3.17594647465310
H         -13.60344152809975   -2.28137228520394    2.35594906817453
H         -11.90231991265733   -1.28196693428172    0.92120056810134
H          20.49081261953418   -0.70565799106898   -1.33608051398826
H         -18.90625786476069    0.19948247357947    1.46260367218848
