    90
       -157.61860028
N         -13.43693958622210   -0.50155343418105    3.22462071855895
C         -13.91789806475305   -0.14567652929582    2.24132583728731
C         -14.53548609797527    0.31364017174897    1.04272543076197
C         -15.92865092515373    0.41521130920726    0.99620482429314
C         -16.55616185499014    0.89581408520901   -0.14044169208416
C         -15.79823935886253    1.28721173574051   -1.23714973586146
C         -14.41560621071993    1.19437088365378   -1.19701791726993
C         -13.76470782069129    0.70311571997855   -0.06644711800241
H         -16.51089738040444    0.11647152896408    1.86000901813473
H         -16.28699370393921    1.66432528903967   -2.12818189549103
H         -13.82944124324549    1.48781663514703   -2.06092267754037
N          -9.17225786706821   -2.81777299610899    1.24460097530513
C          -9.65417971705889   -1.84813734685195    0.85506369654307
C         -10.26398058647738   -0.64963348424933    0.38275506629925
C         -11.65598088995881   -0.55657900166934    0.38477071675872
C         -12.29194311205963    0.60386489503436   -0.04821033675498
C         -11.51151303465171    1.67929377800686   -0.47953414259592
C         -10.12969396560516    1.59845533865349   -0.46593443775995
C          -9.48278420094421    0.43786858199203   -0.04468153295334
H         -12.23976551071151   -1.40690618136691    0.71658006404381
H         -11.99190365362107    2.59339116816391   -0.80997548233974
H          -9.53957212274165    2.44245655778287   -0.80552604396690
N          -4.81817361705585   -2.84811626690229   -1.64391253133145
C          -5.31533512796203   -1.91430265905172   -1.19111481387722
C          -5.95036424957971   -0.76981350956705   -0.62703896484644
C          -7.34449424626237   -0.71866397724647   -0.60930028157407
C          -8.00896621410015    0.36909745704767   -0.04992440615062
C          -7.25617009348142    1.40839245431107    0.50247747803222
C          -5.87326192361667    1.35321849788864    0.50357261205988
C          -5.19648034806879    0.27472528329295   -0.06460778366874
H          -7.90664840334509   -1.53309846256000   -1.05034755246779
H          -7.76025184199671    2.25633940879646    0.95225214380860
H          -5.30479065863652    2.16933631081815    0.93557265160550
N          -0.39947097811448   -0.71531851920884   -3.39878453105879
C          -0.93485296686863   -0.42803444110345   -2.42152573632313
C          -1.61673064799127   -0.08136109149790   -1.21905417294841
C          -3.01169933098545   -0.06720660717916   -1.22113914679882
C          -3.72160091667448    0.24418149330666   -0.06470387661470
C          -3.01284493729085    0.53910122085666    1.10261971883088
C          -1.62898774319658    0.50810705968022    1.11409652190919
C          -0.90751644451446    0.20576084731441   -0.03980173787092
H          -3.53874817790479   -0.29033012127580   -2.14105001723299
H          -3.55206037728770    0.77339806034302    2.01346643477814
H          -1.09570029039161    0.73953925001919    2.02939928516413
N           4.00597299068776    1.99332766483032   -2.82990806818908
C           3.43569221578791    1.45815750376627   -1.98569210383306
C           2.71147608213154    0.79725486281709   -0.95149563120011
C           1.31694012928176    0.82905722279583   -0.98513965799935
C           0.56736748693007    0.17935779837948   -0.00861134819986
C           1.23511644149431   -0.50474843492994    1.01044356879210
C           2.61802892358280   -0.55507697551121    1.03663072304828
C           3.37973812414416    0.09251906975021    0.06475291635488
H           0.82204271092308    1.37662864177209   -1.77827657565355
H           0.66372567437696   -1.02077230413518    1.77379052987416
H           3.11948659544372   -1.09368401739226    1.83311362071657
N           8.38860736511852    3.25111197469997   -0.19228741921924
C           7.79047204636624    2.26970679080385   -0.13211418038685
C           7.03129393400888    1.06807277052950   -0.02995461254007
C           5.63860965412036    1.15487298709582   -0.04824617355265
C           4.85275795138956    0.01576783723073    0.10171514985218
C           5.48330254014902   -1.21682065691017    0.29075665676016
C           6.86403790366696   -1.30863533444566    0.30174287978799
C           7.66288165003345   -0.17782663978705    0.13307029747815
H           5.17362586088186    2.12651398533925   -0.16500873135491
H           4.88458941685899   -2.11383394490172    0.40078201890481
H           7.33379381613626   -2.27890330582456    0.41809689098588
N          12.22223376509344   -2.80030487500323    2.81135636073476
C          11.76462687568469   -2.09404382118547    2.02607514167162
C          11.16490421898175   -1.24032086871218    1.05579886005346
C           9.77567175755130   -1.10280139014564    1.06218583214158
C           9.13220667004078   -0.30450219122934    0.11995550422557
C           9.90412660211806    0.34760808309145   -0.84551910669320
C          11.28020243058732    0.20652541486908   -0.86107153965983
C          11.93792771391548   -0.57941799682841    0.08519697040754
H           9.20043003943411   -1.61493078747866    1.82518615503694
H           9.42152553122128    0.95775017854877   -1.59961033044327
H          11.86052208442717    0.72955958205246   -1.61285468504398
N          16.59012064120154   -1.45066035194062   -3.49773222465888
C          16.07672454902266   -1.27245883163141   -2.48367477160638
C          15.43679737207281   -1.04645545342685   -1.23078859187066
C          14.04755429479315   -0.92519176162843   -1.17377329368177
C          13.40735884834583   -0.70937572739107    0.04525120709009
C          14.17672419284924   -0.60617665457516    1.20648670533743
C          15.55758620412991   -0.72340487848774    1.14911966118535
C          16.19463413416317   -0.94558526338641   -0.06085479540778
H          13.46689585549734   -1.02158946777596   -2.08399615051786
H          13.69410547057803   -0.41736610677757    2.15809413139989
H          16.14175623098502   -0.63911681788215    2.05837798374776
H         -17.63699345974614    0.96820476314606   -0.17158222555852
H          17.27284490671538   -1.04039266487484   -0.10757217711088
