   136
       -224.65286246
C         -19.88777353283402   -0.98551599234918   -2.77042853293788
C         -19.26881148246561   -1.68523156551004   -3.79478340670264
C         -17.88939190214143   -1.66553967303355   -3.93187205578860
C         -17.09593206552189   -0.93599550474102   -3.03945300969669
C         -15.67020702252224   -0.89920967264983   -3.14200031980241
C         -14.91913006615176   -0.18241952320897   -2.26988335386285
C         -15.51830942651261    0.57236170839692   -1.21147007781377
C         -14.75706136939758    1.31847132361899   -0.29218579713943
C         -15.39738479064393    1.99837515596449    0.74455609581334
C         -16.77331072904925    1.96732658669342    0.88254471838447
C         -17.56362813598716    1.24372202155605   -0.01718360708466
C         -18.98839710320955    1.19530138387750    0.09385906275473
C         -19.73862200622145    0.48591219038550   -0.78503471069849
C         -19.13200313549546   -0.24415153752009   -1.85521805299536
C         -17.71859086486076   -0.21349835097429   -1.98839232723905
C         -16.93181507196562    0.53472307403979   -1.07227428466216
H         -19.86996409780856   -2.25481743918173   -4.49521794503780
H         -17.41587411453568   -2.21891578250275   -4.73571852662808
H         -15.19743669205033   -1.46635449788399   -3.93718314075193
H         -13.83822001800251   -0.17740351041483   -2.35853502932404
H         -14.80068938244958    2.57768345787288    1.44096826885290
H         -17.24733774284996    2.51185395469334    1.69202636699007
H         -19.45771747421415    1.74377759203851    0.90405393510249
H         -20.81923933236142    0.45683516935141   -0.69134506876110
C         -13.28595402849623    1.43024331094610   -0.41977580161923
C         -12.74532285548408    2.08120940465434   -1.52868008326497
C         -11.38081125589776    2.26876010824012   -1.65452163302818
C         -10.50271633090349    1.79972426393142   -0.67092490263693
C          -9.09195227832768    2.00641393123301   -0.75260920477886
C          -8.25323781853116    1.53387293967244    0.20268663318419
C          -8.74149278154252    0.79534716046776    1.32669526932382
C          -7.89081976187672    0.28129251148908    2.32540281368000
C          -8.43849314531906   -0.36158621866897    3.43683814013295
C          -9.80265424113860   -0.53868692035745    3.56615444495488
C         -10.67687725176398   -0.06724216128519    2.58062307850384
C         -12.08937918880955   -0.25780343602177    2.67243271173827
C         -12.92639905649800    0.21458447242825    1.71644836453303
C         -12.43107165926032    0.93063751865740    0.58150460337145
C         -11.02727923806660    1.11306808376635    0.45472787883659
C         -10.14674694057462    0.61422795966327    1.45396011276710
H         -13.41384947421783    2.46732297155303   -2.29052571558578
H         -10.98418643159915    2.79167527522943   -2.51807666754334
H          -8.70238489709843    2.56290212217058   -1.59865760966021
H          -7.18886784187666    1.72676811833926    0.12988171210425
H          -7.77323912364623   -0.75200772114615    4.19963779080029
H         -10.20213977493556   -1.05392052169154    4.43282889536195
H         -12.47989791460373   -0.79749140830894    3.52879573925199
H         -13.99491523518481    0.04885241554865    1.79722578883392
N          -3.18131651665629    2.01567890548919    5.35846553970685
C          -3.65979367944647    1.51291514220351    4.43963425358260
C          -4.30851897937906    0.92478852422698    3.31673641996274
C          -5.70432010999113    0.89002259213683    3.32483390767545
C          -6.41943251818624    0.38094926822431    2.24392307898270
C          -5.70958555156706   -0.07783446245819    1.12940269732831
C          -4.32729456384981   -0.04327433139399    1.11411417186182
C          -3.59765287118429    0.43257923104951    2.20671775883218
H          -6.23431191053823    1.28088790304165    4.18599313187336
H          -6.24534356987655   -0.49528742099257    0.28451706888993
H          -3.78306729264776   -0.41032264163288    0.25061271280965
C          -2.13116362870245    0.36198155645693    2.15285713860634
C          -1.32971535984583    0.13310497285259    3.27290250930906
N          -0.01953999564696   -0.01197375468150    3.18049926988339
C           0.54103228359991    0.07032140407218    1.96605871399415
C          -0.25640148499475    0.34642904037888    0.85212645956067
N          -1.57144311232135    0.46906365910642    0.94031252812943
H          -1.75866213271337    0.03686305659155    4.26409788871695
H           0.18001094830421    0.50116280291870   -0.12942858546686
C           2.00458035298783   -0.06953287161311    1.93415154867429
C           2.70813809692159    0.52509675003640    2.98627774370326
C           4.08512864753677    0.48407076566816    3.04737190244689
C           4.81999566181123   -0.16790311107009    2.04964223429528
C           6.24487533974450   -0.23755614059642    2.09271538337834
C           6.94782836175218   -0.88677620681118    1.13248238652445
C           6.29176038968566   -1.51956325020719    0.02980423101581
C           7.00460867097187   -2.20015012493178   -0.97863271727751
C           6.30931711149672   -2.85560827624916   -1.99381325930187
C           4.92746413344626   -2.83868528461477   -2.04286144160998
C           4.18785250381099   -2.16473776085883   -1.06451331956649
C           2.76058163748996   -2.16834448359016   -1.05875932224382
C           2.05659701703802   -1.51342442123757   -0.10174336222347
C           2.70832576110256   -0.77215305467497    0.93349051010838
C           4.13104364183978   -0.80589813103847    0.98497691949672
C           4.87110643583925   -1.49128566325807   -0.01864546587565
H           2.14389113188275    1.03363838785209    3.76045191981160
H           4.60746771956860    0.95801191110083    3.87112777005522
H           6.75719981030428    0.23531787089015    2.92399956094521
H           8.02841725899893   -0.94241003762225    1.19513893714954
H           6.86839491925889   -3.37844039712042   -2.76233993724809
H           4.40789839177072   -3.35559940313963   -2.84243502752915
H           2.24422612851331   -2.72627413554839   -1.83292666264102
H           0.97458430716061   -1.57417858941453   -0.10075583166080
C           8.48171504227167   -2.29299195986812   -0.94903633256580
C           9.05990173399312   -3.55451754819480   -0.80984939868518
C          10.43020388590043   -3.70904712242473   -0.70970026629241
C          11.27673284524226   -2.59558014509972   -0.74910506450335
C          12.68986469391200   -2.71260748526219   -0.58297820466721
C          13.49667910241654   -1.62346056393782   -0.62349850018866
C          12.97269672398625   -0.31317088726589   -0.86010622068036
C          13.79099103553872    0.83303525566499   -0.91604571410662
C          13.21068053262423    2.09098650571316   -1.08102318184300
C          11.84377887061394    2.23834387629035   -1.22319439488450
C          11.00053834109687    1.12208204533907   -1.19038854698910
C           9.58549307558545    1.23977780413894   -1.34755897651149
C           8.77706619966221    0.15356424345098   -1.28118003396238
C           9.30692477060861   -1.15533748658877   -1.04834265593131
C          10.71582561190662   -1.30553427698178   -0.93685010110884
C          11.56480444557639   -0.16614281500633   -0.99828838175763
H           8.41541018840427   -4.42496170866413   -0.74987462634618
H          10.85522216071732   -4.69875809877828   -0.58250823326140
H          13.10720838870083   -3.69859724152702   -0.40701254723110
H          14.56263140614487   -1.73714011919855   -0.46195454594002
H          13.85187952287977    2.96502716598419   -1.12179835046803
H          11.41741678711218    3.22545651139141   -1.36442046255659
H           9.16891706394525    2.22615769251814   -1.52248086994017
H           7.70587565680214    0.26157776812506   -1.40935713587580
N          18.31266339506305    2.91315101683036    2.15688126940570
C          17.91635170228540    2.26001042563122    1.29566225431839
C          17.31491221074589    1.46523599142486    0.27603003469180
C          15.92683198373006    1.52232429528972    0.14731537952367
C          15.26076381478920    0.74625521012450   -0.79793124454172
C          16.01406426817086   -0.07843065491394   -1.63826138027840
C          17.39105763089635   -0.14197093726012   -1.51452477073289
C          18.06739468944961    0.61541457657730   -0.55690773550429
H          15.36108478453831    2.16678804230673    0.81060577533293
H          15.51797703095061   -0.65498905658026   -2.41063645766655
H          17.95285202547234   -0.77647487141454   -2.19097049077791
C          19.52840277323768    0.54076007511658   -0.41664625933050
C          20.25451208328707   -0.61476888008470   -0.71182424919457
N          21.57174956248793   -0.67111047475958   -0.57184306682937
C          22.18160585816473    0.42381832186960   -0.12556314403599
C          21.46744875703944    1.57156167494381    0.18366342580957
N          20.15113323441493    1.63295415697710    0.03608663333466
H          19.76137840343194   -1.52038712797773   -1.05083897370071
H          21.96069984670695    2.46429179792566    0.55433285562209
H         -20.96781289686056   -1.00975830915423   -2.67244741821776
H          23.25964345613031    0.37643877876068   -0.01281261597665
