   124
       -238.45598843
O          19.85471707964329    4.21276899092641    1.23100047571568
S          20.21782941961088    2.83202244916899    1.00362391110995
O          20.49856586140580    1.98993629843203    2.14519937456561
C          21.52250713301217    2.71662671413710   -0.19511110616763
C          22.82087128595755    3.14886792901358   -0.04680834499479
C          23.69168614287402    2.95861272772949   -1.11695578767345
C          23.24939114546261    2.35269958130259   -2.28625923419729
C          21.93443907176715    1.92230212568076   -2.42018728291822
C          21.05261891972803    2.10481049375022   -1.35960120488304
C          19.63866139902495    1.72444052669089   -1.28716123560498
C          18.86340838732647    1.09955941345170   -2.25916353063004
C          17.53297075639280    0.81477405181518   -1.98696373062827
C          16.94719304358136    1.13684465081462   -0.75836383050559
C          17.72439619917837    1.76980014400759    0.22189825242248
C          19.03843606932514    2.04571819396492   -0.06791981988391
H          23.15198811332288    3.61936602467078    0.87033042880876
H          23.94096892666565    2.21196216748131   -3.10935496826387
H          21.60524180715503    1.45098662682724   -3.33890865190648
H          19.28902697275806    0.83041599620608   -3.21886387346967
H          16.94040253092090    0.30905537700037   -2.74122794697259
H          17.29818578552073    2.05184193028917    1.17654371636123
N          11.65531626363823    0.78294792748005   -3.27116051067190
C          12.33545036649002    0.71001311336466   -2.34521406439493
C          13.23584362667933    0.61189783671242   -1.24587235235213
C          14.57500468352306    0.92412982525106   -1.48961178053241
C          15.53670587164338    0.80822872257784   -0.48878972420821
C          15.13451070766333    0.35728655635532    0.77339954401144
C          13.81279746728372    0.03969340708521    1.01827726160041
C          12.83392046294125    0.16929558306600    0.02815346077402
H          14.85545035155186    1.27493713279240   -2.47623334598859
H          15.86847919146962    0.23396873090958    1.56142324794059
H          13.51269279216263   -0.31837980143058    1.99701840695015
C          11.44783347000316   -0.17441275827410    0.37044932709235
C          10.32230469996538    0.40481457340940   -0.22143786784492
N           9.09567176351606    0.04973144889827    0.11529301128520
C           8.94042434218382   -0.88826903810845    1.05864486264013
C          10.06528551770296   -1.41876855420832    1.69611258891316
N          11.29419491488886   -1.06848920870399    1.35733359877051
H          10.41259725183136    1.18277101594686   -0.97101828926192
H           9.97589241052103   -2.13712744139353    2.50485756403969
O           3.65253024115484    1.30439749041236    1.32936450044359
S           3.75436358029273    0.03710521573231    0.64258053613025
O           3.60897047473758    0.00691269406314   -0.79369225272171
C           5.22383947846587   -0.82410829402276    1.14600249417917
C           6.51772795628236   -0.46259569538705    0.87372795630447
C           7.55717098953059   -1.27063242925935    1.36520968595616
C           7.23390703825760   -2.41111913694243    2.10894766372017
C           5.91673185171972   -2.76239229138598    2.36959972420986
C           4.88568189306371   -1.96315295460080    1.88371314443682
C           3.44143267792917   -2.15538702709371    2.02795477457769
C           2.76570142334800   -3.18033765012804    2.68485360804243
C           1.37791901075786   -3.18378520102853    2.69458628087732
C           0.63516444211804   -2.18398237259734    2.05808027546292
C           1.31227594532736   -1.14757138620581    1.39895951063015
C           2.68508270828406   -1.16100248974603    1.40224094984230
H           6.74808801581331    0.42224093204264    0.29284029525618
H           8.02351437184838   -3.05305226417335    2.48288240984257
H           5.69938381707930   -3.65617038737526    2.94304248143026
H           3.31191647709149   -3.97407234091847    3.18126975713568
H           0.85889396790160   -3.99657976583587    3.19055421267461
H           0.76984480810681   -0.34504446770554    0.91504323851024
O          -3.96591026195590   -2.29015835055126   -1.41352850654831
S          -4.02893965196347   -1.34073467998966   -0.32645277221189
O          -3.89500825173771    0.06715135265634   -0.61977566723683
C          -2.92010626915180   -1.81428891178780    0.97813414319324
C          -1.54825130333175   -1.80382449482604    0.92678846745981
C          -0.83732839196326   -2.20647481388845    2.06682186146874
C          -1.54689390274808   -2.61056632644259    3.20241301754833
C          -2.93442218337367   -2.61066060856393    3.23506663415622
C          -3.64348755109200   -2.20200307417701    2.10896753040043
C          -5.09410905940112   -2.09646749443211    1.93518010306763
C          -6.09964655176369   -2.37465168426817    2.85674140267108
C          -7.42512632398818   -2.17075241886571    2.49938572317555
C          -7.78284911720739   -1.69380029122227    1.23395451796023
C          -6.77309993930938   -1.42580033848540    0.29855797252384
C          -5.46811557501158   -1.63272116572169    0.67147732306299
H          -1.03190104494114   -1.50648365506371    0.02271693985264
H          -1.00113014607888   -2.90784348490697    4.09109562283953
H          -3.45450324025470   -2.91907133003077    4.13460285570375
H          -5.85730394944234   -2.74356177413975    3.84665704050031
H          -8.20276376344921   -2.40076294082825    3.21926882185971
H          -7.00960428578055   -1.03924384928588   -0.68484017915491
N         -11.59939223313132   -1.88612544446317   -3.21638327260752
C         -11.36994062159906   -1.67645831812158   -2.10821484273584
C         -10.97954605019866   -1.42541939446340   -0.75940526731601
C          -9.65756183791319   -1.69521544829862   -0.40709445092540
C          -9.19195462895609   -1.44740715378079    0.88344586043705
C         -10.08572392445774   -0.93237502298870    1.82779046037244
C         -11.39545480872089   -0.65280888638345    1.48264742884905
C         -11.86847488074231   -0.88272218580360    0.18911959949812
H          -8.99300604453747   -2.11467762317340   -1.15360293234114
H          -9.74591317555521   -0.72423458910058    2.83599226311505
H         -12.06680634623088   -0.25819684283260    2.23704945698845
C         -13.24651823141056   -0.55115050425895   -0.19114551323173
C         -13.96306487349285    0.49261815778531    0.40039803098404
N         -15.17999665142914    0.81766455673384    0.00354535192897
C         -15.72938737359007    0.11502733056455   -0.99699848791744
C         -15.02198541248143   -0.94753390677626   -1.56648775672819
N         -13.80260617668923   -1.27048731343263   -1.17164213977648
H         -13.53286470897653    1.09606649383900    1.19346619261959
H         -15.44802596139074   -1.56034957551038   -2.35407106183913
O         -19.47845420813942    4.34980365432123   -0.18262886365587
S         -20.07092446273657    3.03138391314053   -0.20467221703631
O         -20.55580963248035    2.46638905709303    1.03503077950112
C         -19.00448570707561    1.87822486162713   -1.03577326134711
C         -17.76422242931940    1.46243385176917   -0.62485692531135
C         -17.06811786177024    0.53897461761245   -1.42338619586080
C         -17.66444535523374    0.07904607401533   -2.60295911336571
C         -18.91967367711633    0.51490581648524   -3.00258274123000
C         -19.60868096859143    1.43166687592353   -2.21440484013507
C         -20.92308584582010    2.03056888089319   -2.46012375923031
C         -21.77275076371350    1.81519394946556   -3.54100389554865
C         -22.98166490958080    2.49872852450325   -3.59570809271381
C         -23.35075679206468    3.38705890110339   -2.59314990549743
C         -22.51192129633342    3.61186875206873   -1.50433364144549
C         -21.31844589185129    2.92733270281710   -1.46476590708725
H         -17.31723830576209    1.83237406453152    0.28993561547966
H         -17.13667347724040   -0.62365286511580   -3.23742054738943
H         -19.35115217240600    0.14493127892954   -3.92549406966228
H         -21.49830617307490    1.12688683779120   -4.33191375110200
H         -23.64638918680627    2.33627625612948   -4.43679930192736
H         -22.78658633214181    4.30190629060997   -0.71653069293988
H          24.72140587153816    3.28604511729272   -1.03467697471465
H         -24.29731909212176    3.91070692955293   -2.65755526551631
