   162
       -276.10384921
O          22.30029940396944    1.27104354641947    2.18701345616498
S          22.44257151631357   -0.12379888759712    1.83428716265623
O          22.17277264709960   -1.12682486470716    2.84060105355984
C          24.01601053560022   -0.41687181915703    1.06535998888977
C          25.25500389235139   -0.32113255734387    1.65719184117808
C          26.37063416153797   -0.59483871554039    0.86957392535291
C          26.22094301639289   -0.95048884728329   -0.46502226590756
C          24.96216229719231   -1.04323029220113   -1.04752288076948
C          23.83797505030434   -0.77330444856684   -0.27353885179033
C          22.43057998130824   -0.81435771269104   -0.68251985931771
C          21.90457216365860   -1.13935423611646   -1.92913489401837
C          20.52838995673893   -1.13205763250689   -2.10855471219208
C          19.65357925972166   -0.80048129798430   -1.06967713071006
C          20.17983811344969   -0.46533422462724    0.18560819591712
C          21.54397195426376   -0.48377154258166    0.34458374907480
H          25.35693166711747   -0.04279983916895    2.69851148565382
H          27.10024704426993   -1.15977692879504   -1.06398421577905
H          24.86223285775120   -1.32202994854268   -2.09012643212657
H          22.55688781157896   -1.39723064524552   -2.75545400137527
H          20.12403842203606   -1.37418865551266   -3.08526310798439
H          19.52887698445145   -0.22088881573919    1.01586905139528
N          14.57851329168992    2.03309313267802    0.13027702571991
C          15.21039984894509    1.17670655029892   -0.30680551907694
C          16.00222487097864    0.12824808793447   -0.86088720320963
C          17.38747395373942    0.16506595500660   -0.70395097059457
C          18.19418963626222   -0.81801410648069   -1.27368268496361
C          17.59126648976682   -1.82906345124095   -2.02748236593075
C          16.21601843279526   -1.87179673211050   -2.18038493455942
C          15.39700187504516   -0.91294036676291   -1.58746247836418
H          17.83328565712600    0.98144414427176   -0.14748891858549
H          18.20241611602268   -2.60619448181165   -2.47266992932741
H          15.76304180143637   -2.67687951855790   -2.74825811668411
C          13.92953043931070   -0.98439965984391   -1.74507817649193
C          13.39215061819081   -0.95456559839251   -3.03139638593929
C          12.02478434122342   -0.97804147123666   -3.23701607292770
C          11.14270781371606   -1.04157125872997   -2.15266427072828
C           9.72453409190482   -1.05086507197206   -2.33061666407377
C           8.88324655055030   -1.12407850078300   -1.27015133943091
C           9.38129907502462   -1.19681081320901    0.06911287254565
C           8.52371127361722   -1.27223181143750    1.18061972322399
C           9.05429369020360   -1.32860199275636    2.46694599040459
C          10.42268089298386   -1.32406101851752    2.67453209175896
C          11.30735706302322   -1.25749787676363    1.59280846468926
C          12.72471214235209   -1.27792412205362    1.76907859776483
C          13.56697376793259   -1.20051520323749    0.70971640991456
C          13.07527029026263   -1.08207270975775   -0.62916689965017
C          11.66949071999481   -1.10289827876917   -0.83588756024724
C          10.78639171079275   -1.18448685429449    0.27505168750488
H          14.06289191207657   -0.88578309263944   -3.88125668519040
H          11.62943067919496   -0.93937191012790   -4.24618884138232
H           9.33390199614090   -0.99668597442247   -3.34143067035826
H           7.80895668382289   -1.12830221930198   -1.41973962116875
H           8.37953288045081   -1.38489627444688    3.31412222120847
H          10.81668580009841   -1.37604223222720    3.68359910258804
H          13.11672712668848   -1.36439276490683    2.77692956821791
H          14.63863099055918   -1.23666508618215    0.86847355797173
C           7.04977436240385   -1.32443983258364    0.99873055446922
C           6.43990549298771   -2.55481979827247    0.76615029028344
C           5.06749198121148   -2.65406082732081    0.61900547294579
C           4.25970853074098   -1.51390143875550    0.68935645237471
C           2.83870476621741   -1.58168467444103    0.56390112092946
C           2.07355305097269   -0.46313120818234    0.60958264971219
C           2.65323138284932    0.83484246819273    0.77577257419085
C           1.88202982102280    2.01501043587665    0.80194102498874
C           2.49806450505330    3.23840917619263    1.06825483796866
C           3.86346371352001    3.32655196813764    1.26516313432203
C           4.66822867927767    2.18321246678172    1.20297268076176
C           6.08587341838635    2.24579826059339    1.37282907163327
C           6.85204156232748    1.12920297727338    1.30906315264271
C           6.27047787650102   -0.15693341968574    1.07658307253745
C           4.86277105488523   -0.24877491770487    0.91070148335626
C           4.05946428218143    0.92307495842348    0.96481669355331
H           7.05517523054440   -3.44601824175759    0.70769099043275
H           4.61020095062079   -3.62247615820034    0.44767077011533
H           2.37886363354824   -2.55634341310860    0.43831326888235
H           0.99503588071430   -0.54649899603079    0.53717987890993
H           1.89375752583971    4.13880129790160    1.09222170230873
H           4.32030459890414    4.29103714773286    1.45768359259238
H           6.53863960265646    3.21515376113512    1.55240714195017
H           7.92741317980216    1.19156684277723    1.43524588421053
O          -3.08599205339478    4.66774825749674    2.10554404292170
S          -3.12469152074149    3.22230527189363    2.12464026577111
O          -3.20979556521287    2.54575329054295    3.39947800532175
C          -1.80243911893056    2.55117152114843    1.14512831965564
C          -0.45886803546921    2.60276949981102    1.42900132646316
C           0.43087434289111    1.99251297236891    0.53454438864532
C          -0.07165561231868    1.38966427144508   -0.62348329439536
C          -1.43189689109190    1.34781954335491   -0.89267031142175
C          -2.32101132131225    1.92475223124796    0.00917680988257
C          -3.78234414206168    1.95922082650812   -0.06102424446330
C          -4.60947117148041    1.40705193353195   -1.03451216612627
C          -5.98482459057133    1.52534615408184   -0.90180259735222
C          -6.56752182510692    2.18828245436266    0.18369915889143
C          -5.73678358175528    2.75031430759111    1.16354231449333
C          -4.37702492025442    2.62020768308335    1.01622655757672
H          -0.09720208227251    3.08071723543198    2.33090268658221
H           0.62171731012948    0.95810894104208   -1.33667259998532
H          -1.79191160019768    0.86876355659330   -1.79578798377440
H          -4.19035624817377    0.88014291674916   -1.88388756817515
H          -6.62393984988643    1.06914444785840   -1.64962205057971
H          -6.15174039764884    3.28483976504703    2.00892678675757
N         -11.11263821827281    1.93552957867632    3.98414527320655
C         -10.64170255125163    2.05638091192822    2.94129161349110
C         -10.04426431912135    2.19577559815087    1.65508359139118
C          -8.65335682790433    2.16980859970684    1.54630319944815
C          -8.03368362031909    2.26806590709555    0.30210737730092
C          -8.83517296637814    2.41772072608205   -0.83466434208436
C         -10.21476552022813    2.43810664945582   -0.73123141229552
C         -10.84513973907029    2.31420679408718    0.50670844190140
H          -8.05995682882963    2.04056635538158    2.44403965051083
H          -8.37384984583118    2.53433615231462   -1.80884729511255
H         -10.81840534942327    2.56520659901295   -1.62300772418701
C         -12.31954743237267    2.31563349300188    0.60905889441182
C         -12.94912638811703    3.30091014247176    1.36833245315470
C         -14.32718127663876    3.35643807550613    1.46582533247682
C         -15.12716075806341    2.41366704419806    0.81038705561538
C         -16.55306254256861    2.44055663243868    0.89613487425115
C         -17.31396455738972    1.51262721596771    0.26510196682379
C         -16.72258537182297    0.46790032063437   -0.51316385142188
C         -17.49475924989394   -0.51525080187568   -1.16066641512715
C         -16.86247987507067   -1.53793075189851   -1.86812840152350
C         -15.48412474923527   -1.60077037351471   -1.95853989042644
C         -14.68526638683818   -0.63631742910815   -1.33427413341353
C         -13.25923678539508   -0.67984287802564   -1.39664369116578
C         -12.49839762909660    0.25976571925372   -0.78297038765851
C         -13.08966499424874    1.33710808579596   -0.04984746077012
C         -14.50660437457208    1.38791031801918    0.05065002259849
C         -15.30541694405928    0.40836395244264   -0.60089702148121
H         -12.34387803796954    4.04441204401374    1.87514380636471
H         -14.79588917447611    4.13729750685196    2.05446289262119
H         -17.01700130189475    3.22278940212495    1.48773383883739
H         -18.39439494395003    1.54316502541670    0.35212908627690
H         -17.46935798727982   -2.28450130063815   -2.36896599674523
H         -15.01401604822743   -2.40146329106654   -2.51918473649115
H         -12.79307221032512   -1.49299993607757   -1.94335701137125
H         -11.41706477322977    0.19430295423436   -0.82929564897299
C         -18.97446686717127   -0.47053807133712   -1.13498548838478
C         -19.63386999315809    0.58481777676046   -1.76547276065544
C         -21.01518263671403    0.63989426232163   -1.81667773137238
C         -21.79092790351429   -0.36549000804479   -1.22896332575235
C         -23.22008066511005   -0.34375478578879   -1.27158847383234
C         -23.95606795095770   -1.32451510991290   -0.69279546446546
C         -23.33029160331993   -2.41673237173689   -0.01311193390080
C         -24.07148431815969   -3.43564821555292    0.59575551998947
C         -23.43401853680920   -4.47743274114020    1.25203735303516
C         -22.05025795043794   -4.53070784234560    1.31739479136756
C         -21.27084256837150   -3.53443309230185    0.71900191476848
C         -19.84211049476093   -3.55077419460533    0.77139833847718
C         -19.10443812150045   -2.57783127885391    0.18177348744565
C         -19.72121515288877   -1.49391789149636   -0.52122447676930
C         -21.13991231107282   -1.44046044436905   -0.56880691993557
C         -21.91228534942498   -2.46317294127262    0.04408547591959
H         -19.04659508194567    1.36265431564829   -2.24167971779642
H         -21.50417020503209    1.46593358647581   -2.32173167055603
H         -23.70446679236044    0.48223069935746   -1.78211026604200
H         -25.04009117825740   -1.29761275922496   -0.73224037480258
H         -24.02404617371833   -5.25795774205733    1.71997339984895
H         -21.56221941620511   -5.34900829395938    1.83602542132175
H         -19.35646956679008   -4.36342583583433    1.30181978240874
H         -18.02199335016124   -2.60331753693475    0.24305943448859
H          27.36165548686144   -0.52935016946372    1.30315736901222
H         -25.15490118902336   -3.40472932414879    0.55176446039281
