    40
        -72.02082523
N          -4.61270653918602   -3.03602934423577   -1.22317932967391
C          -4.91627417792808   -1.98584777508082   -0.85750129803527
C          -5.47245777451515   -0.74366247532468   -0.43615207086156
C          -6.86807990622178   -0.65484067330506   -0.46380218879468
C          -7.50856029682626    0.50973170819653   -0.07625163516442
C          -6.75495659117540    1.59802095738001    0.34453645300547
C          -5.37209729246676    1.51972998409005    0.37616154077476
C          -4.69777437773934    0.35710599336577   -0.01059390570482
H          -7.44626569425898   -1.51052297383220   -0.79404704346415
H          -7.24584465797910    2.51440543902572    0.65025091523089
H          -4.81427677363361    2.38622598084386    0.70939803444885
C          -3.23171001522806    0.27201867789567    0.01712613857261
C          -2.39360297753607    1.31840870418586    0.42366575802496
N          -1.07798606215257    1.20464384139896    0.42592616093808
C          -0.53252644469398    0.04578773112995    0.02676922621377
C          -1.36828759368500   -1.00118982962817   -0.37270557226200
N          -2.68482373090992   -0.88396015120044   -0.37625345500499
H          -2.78685963936287    2.27301456061596    0.75543398803893
H          -0.97163961212205   -1.95718532055257   -0.69958486608845
N           4.18377392887611   -3.31874757866363   -1.17608516257453
C           3.69145190182562   -2.36066921200395   -0.76837002610502
C           3.04279362221793   -1.18149704090418   -0.30258076227340
C           1.64580730440888   -1.15795970885334   -0.33542562045897
C           0.93519503896810   -0.01875733082998    0.04328758053116
C           1.66300787670667    1.11210089509151    0.44173955934702
C           3.04218502897235    1.09459610683569    0.47451425137285
C           3.76441539195054   -0.04891577677013    0.11985809975449
H           1.12844382395471   -2.04914264005715   -0.67039928595125
H           1.12529461062382    2.00959151219224    0.72699270913113
H           3.58996125478702    1.97804792636011    0.78391964551521
C           5.23265358501375    0.00360540666194    0.19937889431786
C           6.04078226135930   -1.09321807685155    0.50417275940281
N           7.36280154460170   -0.99487411318600    0.57121355121536
C           7.89678022573085    0.20290195851392    0.35201714828165
C           7.10023395329476    1.30944395078403    0.08881905232231
N           5.78003533811570    1.21266775222076    0.01207068814365
H           5.61358372168686   -2.06732434615238    0.71767579375325
H           7.53023346469549    2.29317208086896   -0.06610872012934
H          -8.58999757632710    0.56877376442715   -0.10224604862236
H           8.97759385615770    0.28044943534762    0.39765904283199
