    46
        -79.33837566
N           4.92981774238813    0.59243405853975   -3.22698119250070
C           5.39044844568868    0.43450397787925   -2.18382957186671
C           5.98602253431261    0.22783257433995   -0.90654881754146
C           7.38031515504779    0.20325983136242   -0.81028790532273
C           7.99239022951516   -0.02843905394715    0.40950534511361
C           7.21767978301994   -0.24587580210131    1.54195559005286
C           5.83436270273661   -0.22917398889731    1.45412975311800
C           5.19762177977489    0.01221805759717    0.23761536029684
H           7.97522683630517    0.36438272132340   -1.70192164036282
H           7.69318051430587   -0.42765692481338    2.49891334824190
H           5.23618672100702   -0.38627803985885    2.34489411532546
N           0.31832471399308   -2.82680290031586    1.97567667720367
C           0.87375744125641   -1.99630332267691    1.40440772405076
C           1.58732454321361   -0.96739660895731    0.72440746247773
C           2.98142726092081   -0.96622008081374    0.78965727467036
C           3.72355413899809    0.03328671029690    0.16604931796349
C           3.04616536191342    1.05208999463856   -0.50840220602354
C           1.66345725186729    1.06214664958627   -0.56476687767882
C           0.91042816157713    0.05407578534311    0.03573595121226
H           3.48485279882350   -1.76727560998349    1.31864753623960
H           3.60587232145268    1.84962220794988   -0.98241486908695
H           1.15634554867054    1.85592783485973   -1.10194171943248
N          -3.87847531999200   -3.23032715291220   -1.10820396870905
C          -3.34855227400477   -2.24649507550812   -0.83293243940937
C          -2.66707482780718   -1.04263872282954   -0.49028476076690
C          -1.27488938842841   -1.06930908397179   -0.39983334601368
C          -0.56180441788358    0.07478932144681   -0.05257868496402
C          -1.26485372316381    1.25457340212632    0.20314498200405
C          -2.64684783612646    1.28085929541061    0.13182618021481
C          -3.37253643076195    0.14226443209239   -0.21642386426755
H          -0.75074635990382   -1.99252764074125   -0.61651402800595
H          -0.72506029961717    2.15273085000461    0.48144278535772
H          -3.17431238943801    2.20654546401243    0.33429156195716
N          -8.24106671151399    2.00871587991762    2.62172316483352
C          -7.66670879075753    1.49840694262353    1.76529293347702
C          -6.95126019477116    0.87228522302261    0.70381116643438
C          -5.55752750835159    0.81087852849479    0.74826749855411
C          -4.84620470947652    0.19682346410684   -0.28057462117900
C          -5.54537006438730   -0.34676942594187   -1.36043252053610
C          -6.92999824396610   -0.28244447779955   -1.40576365256981
C          -7.63970635378133    0.32114506609245   -0.38043899020672
H          -5.03206239730475    1.22587682824184    1.60071993974995
H          -5.00213445687924   -0.80952680523903   -2.17574851303045
H          -7.45987102905467   -0.70660957939471   -2.25110761392041
H           9.07388757409238   -0.04210721440184    0.47809310517067
H          -8.72158583350839    0.36940240979561   -0.41237697032386
