   110
       -201.71411488
O         -16.74358904493613   -1.22316335668411   -2.66480103048273
S         -16.94535882939054   -1.59027184312506   -1.28111207899712
O         -16.93824024269402   -2.99109487779396   -0.92546032438444
C         -18.38215236559040   -0.78193312094236   -0.62115214259035
C         -19.69077000446180   -0.98960753177969   -0.99388239481382
C         -20.67286807221472   -0.24224903914797   -0.34854007255098
C         -20.32719879995793    0.67569705824968    0.63534504060691
C         -19.00046865694902    0.87329290997829    1.00049163793788
C         -18.00789832928368    0.13493567518854    0.36415924085070
C         -16.55979895177077    0.19323226453108    0.58543178827685
C         -15.85513247651885    0.99466264594552    1.47860470926765
C         -14.47045567995183    0.91192541930742    1.51799241168741
C         -13.76095713130563    0.04405960170738    0.68195117477417
C         -14.46817339442205   -0.77323757346023   -0.21081443050675
C         -15.83797924707834   -0.67710084486814   -0.23380884624202
H         -19.94582120146817   -1.70809660476804   -1.76265690936037
H         -21.10452500817646    1.24958007854691    1.12711688773141
H         -18.74758896029457    1.59418684382260    1.76924233581326
H         -16.37474919052196    1.68450766135369    2.13333795390309
H         -13.92545087723333    1.55618584757091    2.19912579151077
H         -13.95284301834082   -1.47354941304573   -0.85618905052368
N          -9.03474840079157    0.29232443025905    4.23208548098224
C          -9.54135375451833    0.22083905388285    3.20114195848008
C         -10.19765217724584    0.12442490383212    1.93997178201984
C         -11.59325805908396    0.12792262053484    1.91570421182978
C         -12.28855149318945    0.00477875563408    0.71489394821258
C         -11.55769948816667   -0.14198988834221   -0.46831814332424
C         -10.17491711143506   -0.14812805016408   -0.44898095305724
C          -9.46764387606141   -0.00586772467159    0.74538681528013
H         -12.13212975759255    0.20963544921352    2.85268958779472
H         -12.07641254301623   -0.22406644554977   -1.41642699565270
H          -9.62986673413906   -0.23610478478558   -1.38223284640492
N          -4.71497423891575   -2.48765525394169   -1.72250154779468
C          -5.23084045046799   -1.74502218963535   -1.01048492115055
C          -5.89728484733180   -0.82426987172747   -0.15123386716467
C          -7.28931905485881   -0.87573068282766   -0.07159678347623
C          -7.99375189532669    0.02682073306855    0.72187245708415
C          -7.27784240740737    0.98382066740178    1.44603698589694
C          -5.89803986971183    1.04639227346785    1.36062029207266
C          -5.18273102431697    0.15380369305648    0.56284772154609
H          -7.82032987790278   -1.63675014351556   -0.63177867137951
H          -7.80665255930034    1.70134734382667    2.06204862565793
H          -5.36246491117512    1.79778894242724    1.92999602647962
N          -0.83905308126034    4.03954213467746   -0.29946599400074
C          -1.24235354260053    2.97146989595373   -0.15309246838551
C          -1.77144675641009    1.66322619873514    0.04359281477685
C          -3.14758337968061    1.52480233300318    0.22548430866100
C          -3.71775111623825    0.27187812392426    0.43767017131062
C          -2.87984902459791   -0.84395505830813    0.50584152885688
C          -1.51237625211839   -0.71019943267876    0.33832343815772
C          -0.93440052596691    0.53367851350497    0.08511113669364
H          -3.77665059747594    2.40597587628198    0.17184165901814
H          -3.30062545151468   -1.82392450071162    0.69666730360709
H          -0.88216080486035   -1.59156184803373    0.37535985367405
O           4.08148398464920   -2.08229383282101    1.15473993092333
S           4.10377627032104   -0.64563314938379    1.31196701545429
O           4.19179807821250   -0.09277454954286    2.64440704602222
C           2.76378169351053    0.09951676663653    0.41261621889827
C           1.42122028192957   -0.03106977083915    0.67587788606627
C           0.51618437949653    0.64844213781409   -0.15102634391321
C           1.00313647711845    1.41715145053879   -1.21248343249710
C           2.36170028748383    1.53250185659228   -1.46480165506272
C           3.26462489841704    0.86737191115624   -0.64112884010090
C           4.72541960288048    0.85625908823731   -0.72894630081371
C           5.53388939178567    1.51174149131987   -1.65254514791952
C           6.91093156228206    1.37447469366182   -1.56414919475782
C           7.51101970671697    0.59161900203305   -0.57245233930365
C           6.69959821900791   -0.07348611895669    0.35740679320542
C           5.33759336381222    0.07792770161015    0.25603866293114
H           1.07355187863505   -0.62503026631841    1.51195278562871
H           0.30224166824479    1.92355075697742   -1.86582657426093
H           2.70926891602411    2.13336474326691   -2.29689991090573
H           5.09884384740335    2.12141033013771   -2.43575803540673
H           7.53593232758910    1.87254087141037   -2.29696078939496
H           7.13241656064719   -0.67465949987106    1.14728874268958
N          11.97403880966445   -3.18909085945403    0.32513283180378
C          11.53704998332788   -2.14609930229458    0.11132138354913
C          10.97257664278765   -0.86777086986415   -0.16763259273053
C           9.58243140934826   -0.74554997477948   -0.19727317301227
C           8.97817814102996    0.46881060574914   -0.51503041542006
C           9.79459052003253    1.56890744678873   -0.79528947358220
C          11.17244563533361    1.45247537826525   -0.76687552241686
C          11.78891738710955    0.24010650897361   -0.45690870710485
H           8.97506413864894   -1.62041543256582    0.00402685972394
H           9.34699808732418    2.53066680758124   -1.01828263383423
H          11.78579519881403    2.32305826298048   -0.97107175583081
N          16.62131175835871    1.81335900430638   -3.43783440134439
C          16.08542564452268    1.27942474811783   -2.57036693913782
C          15.38802437735869    0.64537099922961   -1.50180975422227
C          13.99482686811139    0.72215931641788   -1.48343149245890
C          13.26049061207813    0.14408892048848   -0.45051383911087
C          13.94689471005582   -0.50152307814596    0.58089628804238
C          15.32914484398141   -0.57028234628334    0.57223336948613
C          16.07461232383669   -0.01062919349449   -0.46508188237877
H          13.48497253901893    1.22385580794605   -2.29803967249887
H          13.39525649581706   -0.94084729079680    1.40342053362881
H          15.84191346873128   -1.08450204348221    1.37740717228567
N          20.93832114100314    0.58492443735916    2.89561835066420
C          20.36290514028331    0.35615744674119    1.92599244377317
C          19.64869952028816    0.07051004849295    0.72643985298389
C          18.25579028536305    0.15882919994113    0.70989193930139
C          17.54705804976003   -0.10813957341779   -0.45958268878274
C          18.24790491845499   -0.47771602817422   -1.60988128720235
C          19.63154491665572   -0.57072434470938   -1.59152366028043
C          20.33867655358468   -0.29593791170119   -0.43242489209589
H          17.72974399088478    0.45884969085226    1.60890454605150
H          17.70650880472208   -0.70862687141020   -2.51956064678258
H          20.16226994473632   -0.86116478434493   -2.49099024460334
H         -21.71375277553447   -0.37847268810800   -0.61750421211893
H          21.41979106513480   -0.36349551948883   -0.41724880965074
