   130
       -231.55646695
O          18.47047158595319    0.75638624014407    2.05524024983420
S          18.64780724458530   -0.39118887761427    1.19252747358040
O          18.53825122603411   -1.71395355720454    1.76667028251305
C          20.14566666408773   -0.23957129946075    0.25098682926245
C          21.43359477594383   -0.27910243625441    0.73492116920539
C          22.47335244084441   -0.14216379861347   -0.18146319827932
C          22.20276543132617    0.02838113045245   -1.53342480667007
C          20.89610953886544    0.06402166215376   -2.00627527999226
C          19.84663589042569   -0.07311714869690   -1.10328704949827
C          18.40829389613683   -0.07629426440247   -1.38672209652664
C          17.77287302350927    0.05001268819536   -2.61814329959716
C          16.38671887719013    0.00563213754971   -2.67399615321671
C          15.61016747860916   -0.15406060734937   -1.52307489778039
C          16.24608906600811   -0.28679361107682   -0.28075986267650
C          17.61868335812697   -0.24416590128046   -0.24708018487474
H          21.62965136281024   -0.41325934236758    1.79122603510984
H          23.02410818363755    0.13412695010781   -2.23331692625841
H          20.70185397266306    0.19589240332506   -3.06435690308258
H          18.34821050109386    0.18049091799812   -3.52740746450010
H          15.89110732916165    0.11162339406085   -3.63275499874293
H          15.67140015689102   -0.44658802661712    0.62286701370175
C          14.14037905997090   -0.24448093119354   -1.61990373294636
C          13.59191967702714   -1.17659734753202   -2.50179017410380
C          12.22597958742418   -1.36750152669544   -2.58508884305143
C          11.35461523585875   -0.62939215699025   -1.77618525968071
C           9.94024044468087   -0.81695084339167   -1.82420289365028
C           9.10878139282935   -0.10979031216092   -1.01980374013440
C           9.61056586187523    0.85896472872076   -0.09425952602361
C           8.76743863391654    1.59790776426148    0.76048811430344
C           9.30433093215886    2.60577144404193    1.56133708800375
C          10.66203016639622    2.86589204130692    1.57145550152299
C          11.53701827288408    2.11547734705930    0.77766627710843
C          12.94662694805374    2.34288708697899    0.78270132842953
C          13.78377751864101    1.59601792946735    0.02078655437974
C          13.29156193724186    0.55305105830197   -0.82583701302873
C          11.88646966940802    0.34573038607294   -0.89275464890317
C          11.01002342186276    1.10792727903118   -0.07170190869247
H          14.25645860252588   -1.78098802114862   -3.10989753794895
H          11.82287692263606   -2.10538458220921   -3.26992430297907
H           9.54129286936975   -1.54190388665187   -2.52573889340123
H           8.03721455434956   -0.25959668565173   -1.08725581001805
H           8.64388297926112    3.17439781271735    2.20721484881656
H          11.05809584573026    3.64719966066916    2.21075160458850
H          13.33756120443242    3.13404588083027    1.41355658739082
H          14.84855271549014    1.79906325964453    0.03151000802037
N           4.92911200802824   -2.75147131134750    1.60813561331234
C           5.16120284677576   -1.63453181872452    1.45137999065044
C           5.51872567577501   -0.27395764298934    1.23114672387643
C           6.88078067883219    0.01632531132338    1.12771838927633
C           7.32278955504194    1.30818984123551    0.85345545940270
C           6.37328347322903    2.32165745103722    0.69431918349006
C           5.02338564226856    2.03952695760989    0.78679277110457
C           4.56549466490971    0.74745856677793    1.06122797924661
H           7.59948120843825   -0.78113165462216    1.27766109174050
H           6.69983515601232    3.33181840791036    0.47456024480738
H           4.29105130584145    2.82692548240642    0.64543550197391
C           3.11793095185018    0.51691431320286    1.13726266791181
C           2.52248508680329   -0.47315938824628    1.92302418163028
N           1.21863330392229   -0.67754030448692    1.91691544526647
C           0.45243376507368    0.10490922219186    1.14406875066380
C           1.04140251187083    1.15053205682815    0.42712714661582
N           2.34887435789936    1.34916595430477    0.42221542330682
H           3.10943119852199   -1.10529390404725    2.57970955518936
H           0.44987801626236    1.84197135445819   -0.16402108703870
O          -4.87206435771258    2.08065272017285   -0.09318483028097
S          -4.56029165894981    0.75614384526179   -0.58434961406605
O          -4.35778329793632    0.57277429094776   -2.00425376021415
C          -3.21187204080739    0.05505098896330    0.33794422904077
C          -1.90173752959940    0.46940441539478    0.32258113840112
C          -0.97699555524451   -0.22570699568227    1.11741027994660
C          -1.42888533840327   -1.30010258039132    1.89740460174710
C          -2.75271603939031   -1.70257565638330    1.89923173067822
C          -3.66895190662800   -1.02140141585462    1.10219098295873
C          -5.09527130453287   -1.29548074001263    0.93364309017840
C          -5.84927049327207   -2.30254143898400    1.52870242537966
C          -7.19721229394569   -2.40865659068361    1.22101105032337
C          -7.82110700912219   -1.52711645090254    0.33281051303574
C          -7.06404392469225   -0.51546771746869   -0.27435327310455
C          -5.72945207588279   -0.42642213782371    0.04251979836162
H          -1.60502817561660    1.30601020901512   -0.29711392447528
H          -0.70755288195985   -1.83025945228834    2.50967961674488
H          -3.06579889881958   -2.54119245060649    2.51009127690142
H          -5.39365021028984   -2.99809420502312    2.22380654176558
H          -7.78870855253765   -3.18647425062931    1.69134892372901
H          -7.51173484580491    0.15877657380038   -0.99351139207051
C          -9.25239462923076   -1.70968865831651    0.01952973319402
C          -9.67248285582729   -2.97015298638076   -0.40829462517437
C         -10.99288224923792   -3.21593532134472   -0.73193005316059
C         -11.95202180337935   -2.20349634583553   -0.61827731422284
C         -13.32280308347348   -2.42428813336091   -0.95124475556216
C         -14.24976545479749   -1.44608376734505   -0.80234153153741
C         -13.89431070098775   -0.15199366180875   -0.30701348180565
C         -14.84310022475406    0.87412808475496   -0.12623357242226
C         -14.42196074024303    2.14563944749599    0.26325006991181
C         -13.09154623283010    2.40922465390567    0.53025734026743
C         -12.12877311511554    1.40002742894127    0.41549501782980
C         -10.75830073117383    1.62110443278103    0.74937017393687
C          -9.83696685541610    0.63242588153274    0.63775809940777
C         -10.19034516804057   -0.66596058115891    0.15158933835790
C         -11.55389702891011   -0.91847608992841   -0.16574450008723
C         -12.52592370627685    0.11033570807941   -0.02381685867754
H          -8.93884919882890   -3.76261582635227   -0.51098324090443
H         -11.29171262178206   -4.19953479225188   -1.07722821961968
H         -13.60830162574880   -3.39978342198179   -1.33067266977421
H         -15.28205928030474   -1.63276655844670   -1.07619102206822
H         -15.16067305928641    2.92989298320774    0.38901638559320
H         -12.78997608357311    3.40071210416716    0.84961049204487
H         -10.46948899821724    2.60192194326153    1.11182643596092
H          -8.80979007788630    0.81865920620604    0.92928763787431
N         -19.67988450273149    2.93224764217241   -2.75501692256427
C         -19.14441958781566    2.15760607206123   -2.09254399728396
C         -18.42997495773126    1.24419592000238   -1.26579474627350
C         -17.05514470636151    1.44966904130000   -1.12047623968400
C         -16.28950226884147    0.62942425848533   -0.29776749484846
C         -16.92907366990159   -0.39120749092361    0.41385122959867
C         -18.28939502025676   -0.59262188076403    0.28157992361577
C         -19.06501915320045    0.20136694863177   -0.56759900721182
H         -16.58311648706075    2.25678394642563   -1.66914453314383
H         -16.35527501423925   -1.01158302584707    1.09295065994502
H         -18.77988727726499   -1.38017628193559    0.84336846876279
C         -20.50268738653742   -0.09540158915542   -0.66688800996230
C         -21.27033867434759    0.12043822633634   -1.81245009118491
N         -22.55971788866338   -0.18581240064652   -1.86089640923251
C         -23.10190758393224   -0.71343626649503   -0.76780217832362
C         -22.34185378042084   -0.95889395203501    0.36596604801321
N         -21.05134069232055   -0.65871992090883    0.41737231938902
H         -20.83372879995440    0.52870576431339   -2.71693762989865
H         -22.77711505786663   -1.40694957970967    1.25373864127031
H          23.49991298941126   -0.16973124764384    0.16456163873552
H         -24.15949442859183   -0.95248580769409   -0.80583454603910
