   156
       -283.00416073
O         -23.73369712365796   -2.70019765413372   -3.44084774931272
S         -23.34093949875578   -3.53014748021740   -2.32412664986407
O         -22.68470811226528   -4.78996040922110   -2.59204289300720
C         -24.69920302398190   -3.75675097196497   -1.20320329139802
C         -25.86462661117649   -4.44761961744611   -1.44598478922663
C         -26.80758409681052   -4.50464911190359   -0.42252060515191
C         -26.56550789273350   -3.88014692514901    0.79458331825802
C         -25.38290025514619   -3.18665333679315    1.02405829201256
C         -24.43080583649756   -3.12189398113910    0.01175358203017
C         -23.12619620969179   -2.45425296698755    0.04389750618822
C         -22.54966561874982   -1.73926473586802    1.08910180348176
C         -21.28937406719540   -1.18452547873865    0.91829424906949
C         -20.57944926128409   -1.32495879951951   -0.27844352774150
C         -21.15815338765692   -2.04323096554484   -1.33418239378901
C         -22.40663446983411   -2.58380221066329   -1.14576517849019
H         -26.04050763076801   -4.92957333134285   -2.39937816217634
H         -27.31075883247808   -3.93431299777181    1.58020349349374
H         -25.20818053304675   -2.70518163954799    1.97914743575203
H         -23.07161176483674   -1.61741949297537    2.03107661642720
H         -20.83734771078156   -0.64667344823841    1.74423736955113
H         -20.64489244976246   -2.15567304357716   -2.28099469826059
N         -17.21786187803514    3.30075131454789    1.18250058177715
C         -17.39878099721353    2.29959612507324    0.64402304543042
C         -17.65738138109383    1.05267090377980    0.00493430479597
C         -18.93114418146466    0.49794813695297    0.13632230650668
C         -19.23682152664202   -0.73788112690317   -0.42946187851060
C         -18.23727447009405   -1.41360671061038   -1.13638242652542
C         -16.97163259851030   -0.87072215431995   -1.26489421806133
C         -16.65388229407527    0.36663824264448   -0.70313310020143
H         -19.68883498122642    1.05297140704259    0.67749085861969
H         -18.44569482205354   -2.38376932103499   -1.57235670232086
H         -16.21620703764265   -1.41038826341476   -1.82475438595216
O         -11.21971338390352   -1.21834569082155   -1.69485935108929
S         -11.39097702257732   -0.27141997130569   -0.61597057913713
O         -11.21746274832324   -0.73088034901543    0.74422833257729
C         -12.93145193751081    0.59573764448700   -0.79150537964519
C         -14.19068690452109    0.06076323753980   -0.67346935495416
C         -15.29215403818299    0.91229332709892   -0.83981160948484
C         -15.07242942457090    2.26086681679022   -1.13571685482669
C         -13.79175324980234    2.78186410581139   -1.25104193396404
C         -12.69529429619742    1.94387743642677   -1.07096272414424
C         -11.27267792374819    2.28587087908395   -1.12585888758451
C         -10.69384638711190    3.52981906202693   -1.35896229472106
C          -9.31128171544353    3.64895034350854   -1.33967435062138
C          -8.48183877324431    2.55157669689332   -1.09101291001841
C          -9.06010487790300    1.29093410365015   -0.88296764918354
C         -10.43006904261072    1.19453665579865   -0.89964183592208
H         -14.32754209259077   -0.98615390910650   -0.43293549865127
H         -15.92154566854464    2.91576739809807   -1.29196914368761
H         -13.65384240423002    3.83236163921653   -1.47869867973062
H         -11.31140682775932    4.40104000756569   -1.54384134050473
H          -8.86200977413813    4.62295707473263   -1.49938395822080
H          -8.44260352621095    0.41468434377783   -0.73097877802213
C          -7.01576015469609    2.71572984803988   -1.07238008855857
C          -6.39914332592803    3.35103063222263   -2.15108723863877
C          -5.02596355059994    3.49475290925351   -2.20922014346358
C          -4.21415935213392    2.99809965109643   -1.18316140877689
C          -2.79343187825623    3.13407092450463   -1.21215674167392
C          -2.01698065708314    2.63429399757060   -0.21903009387289
C          -2.58518055442339    1.94172256441761    0.89635158414706
C          -1.80003190071812    1.39020602189772    1.92981439844561
C          -2.42134076469802    0.81028316831896    3.03751621126894
C          -3.79741573766153    0.73819361102244    3.13323328719782
C          -4.60835867030744    1.24244828230379    2.11036830270255
C          -6.03266511348508    1.18550586839265    2.18144162274594
C          -6.80750461004004    1.66247751453649    1.17623654792620
C          -6.23293252890117    2.23557092493548   -0.00184863934143
C          -4.81779378044820    2.36112286875192   -0.06771072382724
C          -4.00228920954704    1.84904688978035    0.97943338881894
H          -7.01149477185450    3.71542942623671   -2.96894328383919
H          -4.56924904477524    3.98619616896022   -3.06116818470726
H          -2.34404504866625    3.65708091033163   -2.04951633487829
H          -0.94278748420326    2.77440510796019   -0.25438535079994
H          -1.80692449057687    0.38694867123435    3.82484912888481
H          -4.25657751922262    0.27819642195163    4.00125038026596
H          -6.48649596175822    0.75511756491560    3.06765765147795
H          -7.88687499590130    1.62857874945423    1.26810741744976
O           2.70838911729494    1.25338252327141   -1.66478307624418
S           2.82128897952898    0.37896117627332   -0.51812711273748
O           2.71634009951777   -1.04854781388857   -0.72257787631970
C           1.73270057949121    0.91266309822201    0.78044902375130
C           0.35892094245288    0.90612309922298    0.75616919426064
C          -0.32563372040784    1.39108105326341    1.88019328316535
C           0.40719999880367    1.83962261365662    2.98344012263370
C           1.79430468024332    1.83142011517712    2.99169227178715
C           2.47729260429822    1.36488022048201    1.87267139732084
C           3.92395663780279    1.27303203018566    1.67106439547815
C           4.93945876799027    1.62118444821368    2.55664427079661
C           6.26142262576373    1.45317881230090    2.17240793255472
C           6.60478565069591    0.94536089913184    0.91488445211498
C           5.58388730309338    0.59277688684242    0.02069700784443
C           4.28076048029197    0.76280818836993    0.42083005060363
H          -0.18002050211400    0.51410379783798   -0.09708967350248
H          -0.12449037294263    2.21910652384564    3.84905193402527
H           2.33485317067936    2.18899630448005    3.86034022971899
H           4.70661588341984    2.01434180674535    3.53933312972956
H           7.04675277636551    1.70536342552268    2.87618127072041
H           5.81260989621796    0.21280083993266   -0.96714425582371
N          11.98376166728472    3.34518648003747    1.39266555480475
C          11.25554224729860    2.52066573855371    1.05572947846290
C          10.32368608574324    1.52893089220091    0.63188858111654
C           8.97887722333806    1.69376741317283    0.96256772578120
C           8.01904981421070    0.77603426786459    0.53924356545486
C           8.43073873091928   -0.30723369785361   -0.24351192909688
C           9.76291096814568   -0.47085305698143   -0.58109012974708
C          10.73272493749337    0.43098487815268   -0.14465541298515
H           8.68644465133869    2.56353248079436    1.53945967203535
H           7.70571561386747   -1.04304765153874   -0.57184862065059
H          10.06326933611236   -1.32856985578795   -1.17268363250895
O          15.80936486092670   -1.10196912854056    2.06362847792988
S          15.86601409988747    0.05154220955448    1.19274512488452
O          16.10038156619014    1.35128312878212    1.77744687203921
C          14.44494701780532    0.07689518554528    0.12500528280217
C          13.14009979359226    0.28812588942009    0.49910506591921
C          12.15157382504368    0.22718226177788   -0.49189097482483
C          12.51885946823059   -0.04496142252121   -1.81236371334553
C          13.84530051481447   -0.23533961173828   -2.17307904552255
C          14.83214102970787   -0.17491663751971   -1.19361188701998
C          16.27768233708731   -0.34457802436059   -1.35432374240077
C          16.99370582496588   -0.56633127027202   -2.52693312571078
C          18.37499656471010   -0.68672844276009   -2.46566176079192
C          19.06714377581570   -0.60039672814125   -1.25448948480303
C          18.35066877005439   -0.36771690907750   -0.07182539708555
C          16.98487896842081   -0.24703088229325   -0.15348771391770
H          12.88121059220360    0.47810124849099    1.53300988987069
H          11.75059788678410   -0.08514313131261   -2.57669258831423
H          14.10315458584006   -0.43001706479302   -3.20757630398198
H          16.48368327379212   -0.64340953737356   -3.48022561179333
H          18.93193842194775   -0.86779539649959   -3.37841253409415
H          18.86365785423143   -0.26015228439671    0.87554782560690
C          20.53919134006271   -0.70192636881266   -1.22570437409763
C          21.28056286780400    0.13681681867104   -2.05901684318473
C          22.66262617974165    0.14064037302358   -2.02911318022228
C          23.35845700075516   -0.70644682873882   -1.15941144717926
C          24.78630131571954   -0.70748218652702   -1.08638317184738
C          25.44639283876158   -1.53851082100666   -0.24247763249858
C          24.73819018049899   -2.45125819202601    0.60056276477923
C          25.40106605313316   -3.32161282815994    1.47320099968426
C          24.68642615537873   -4.20014431392436    2.27288023337856
C          23.30158964479433   -4.23425522994930    2.22291596047569
C          22.59922081817161   -3.37824116674234    1.36723441475921
C          21.17326671894393   -3.39520142442419    1.27522867550316
C          20.50969914286498   -2.54967492701150    0.44831794151673
C          21.20414068721757   -1.59788461598799   -0.36452160050272
C          22.62508593576700   -1.59235322176330   -0.32709690350963
C          23.31938720226748   -2.47229446116312    0.54614050544473
H          20.75706452359082    0.81946492057776   -2.71989838843992
H          23.21472164523942    0.81367711256016   -2.67590854028396
H          25.33213225666840   -0.02150257893065   -1.72569502136342
H          26.53026682414223   -1.52910656575267   -0.19329367461671
H          25.21638305868671   -4.86855907644265    2.94258436177579
H          22.75220628989784   -4.92816837775564    2.84979272434325
H          20.62662712853548   -4.11000263932192    1.88116609060904
H          19.42872963781833   -2.59957241229570    0.38213223365551
H         -27.73624479918107   -5.04072171229500   -0.57888162876440
H          26.48464512661056   -3.30459017063581    1.51976899985046
