   162
       -276.10300314
N         -22.17424913121668    5.01715485196637    2.42705014500295
C         -22.60333074909862    4.33704714934010    1.60357374603502
C         -23.15623978019184    3.49581210768334    0.59593106971864
C         -24.53813536794856    3.49737646661370    0.38690713119723
C         -25.09836154308666    2.67145047742272   -0.57252625447671
C         -24.28369666383551    1.84063040568030   -1.33205863237152
C         -22.91210384923392    1.83154323740171   -1.12842083622962
C         -22.32816727784554    2.65067590942063   -0.16279473690830
H         -25.16510422996615    4.14980386289649    0.98352263554650
H         -24.71954679238909    1.19853287906849   -2.08901427386496
H         -22.27914866007065    1.19676115641661   -1.73847282115674
C         -20.86288941449398    2.66007589688645    0.03552692818032
C         -20.17213194235757    3.86194193094353   -0.11738868491721
C         -18.79809123736176    3.92072697428482    0.01913404679558
C         -18.06203220872670    2.76871561450006    0.31748447508205
C         -16.64291106986115    2.79829935968764    0.47250723401478
C         -15.94191197679380    1.67444948294972    0.76217889097213
C         -16.59158128972625    0.40959582713990    0.92102635932274
C         -15.88715823654169   -0.77235102239353    1.22711504153767
C         -16.58633794238705   -1.95856503556422    1.45245908402451
C         -17.96365054205572   -2.00954698231268    1.35142351924545
C         -18.69552724370363   -0.86252918737011    1.02416899179397
C         -20.11955788266510   -0.88119516453045    0.91979989021542
C         -20.81747902484155    0.23775626368893    0.60488375149593
C         -20.15863568858719    1.48390684978940    0.36035051725366
C         -18.74396190461828    1.53698316624692    0.49422169689758
C         -18.00879415135151    0.36109004390948    0.81093137535384
H         -20.72581651390668    4.76126832523420   -0.36331680056697
H         -18.28181530045941    4.86561069189786   -0.10921558671534
H         -16.13358300940151    3.74948882148869    0.36044721831104
H         -14.86753751314245    1.72889926041737    0.89533906294872
H         -16.03152823976624   -2.86031416288760    1.68879477288760
H         -18.48458721928551   -2.94528999718018    1.52207068983706
H         -20.63609533704474   -1.81668016644282    1.10746698673569
H         -21.89975598916670    0.20279547673151    0.55052399404182
O         -11.03281367605872   -0.74699266675979   -1.92501110523492
S         -11.03123465714639    0.12320875027322   -0.76988448983379
O         -11.11036744107488    1.55220214802181   -0.97834518465738
C         -12.25024729855607   -0.39879683853395    0.41228481688776
C         -13.61533957299959   -0.34946852962370    0.26183549435294
C         -14.41381321542806   -0.79583486184366    1.32405192303296
C         -13.80091022367804   -1.29394345262271    2.47713924138090
C         -12.42042198657073   -1.33196043903193    2.61152873879123
C         -11.62359347180131   -0.87042529602335    1.56818662365520
C         -10.16249917161698   -0.79737378057987    1.51070638631654
C          -9.24639305695346   -1.15720602738313    2.49443694024372
C          -7.89152510568779   -0.98431739602493    2.25190177835541
C          -7.42082407835197   -0.46855335868744    1.04098926349181
C          -8.33870313926388   -0.10430335204046    0.04708879204489
C          -9.67723870642632   -0.27679298951775    0.30876999059338
H         -14.06185840697428    0.00615526056819   -0.65816510894069
H         -14.42293740624520   -1.63901367736159    3.29576673105864
H         -11.97387237162891   -1.71177350472579    3.52317673018017
H          -9.58116683011620   -1.56375342770302    3.44168440595037
H          -7.17516601068766   -1.26719428753083    3.01542412258828
H          -8.00443991690298    0.32786704713738   -0.88766929638764
C          -5.96956493827619   -0.26340009128353    0.85524090948626
C          -5.29559740990229    0.51059535417866    1.80081492963633
C          -3.94369416577748    0.76971721566846    1.68370694925582
C          -3.20881094017866    0.23643098685692    0.61917779694117
C          -1.81506669438369    0.50064391313030    0.46016961394103
C          -1.10388585112529   -0.05937860679334   -0.54898618744136
C          -1.71560500578299   -0.94459599278277   -1.49202780863525
C          -0.98681680675898   -1.57506905546515   -2.52153601826587
C          -1.65887929584283   -2.33893450032815   -3.47546149890179
C          -3.02570837692719   -2.53477841238951   -3.40371316499961
C          -3.77271307776451   -1.97477060158006   -2.36083128063573
C          -5.17416890320833   -2.21142731026964   -2.22080760535188
C          -5.88211720402446   -1.67254926115123   -1.19730026217353
C          -5.26188515655577   -0.82471961252036   -0.22594101405627
C          -3.86491221273631   -0.58083034776323   -0.33770251793272
C          -3.11762449106676   -1.16190467061223   -1.39963108619965
H          -5.85466486708069    0.93645129620244    2.62711435495007
H          -3.44495451359783    1.39039214683527    2.41991318064728
H          -1.33410142446442    1.16796678913847    1.16750940520830
H          -0.05152813120278    0.17544309454744   -0.66099010217730
H          -1.09015308481158   -2.81053724341300   -4.26966620444069
H          -3.52403719658818   -3.14412078111845   -4.14964945483051
H          -5.66273614811061   -2.84863480203229   -2.95023212954535
H          -6.93946537466894   -1.89030140680560   -1.09856352974217
N           3.59853822776440   -0.24702501156545   -6.04050802687252
C           3.12124243019984   -0.55424672564882   -5.03925798532830
C           2.51071509704165   -0.94679641564075   -3.81348927296837
C           1.12131759161278   -1.08004342286495   -3.76405891395063
C           0.48447842036516   -1.46677873438084   -2.58849061986441
C           1.26783951489000   -1.76854349427183   -1.46968634491325
C           2.64430897207684   -1.63985457295055   -1.51459992673314
C           3.29213941511176   -1.21440754323915   -2.67574395924822
H           0.53633427344600   -0.85159631546296   -4.64767220802001
H           0.79156426841562   -2.11291423447262   -0.55867319443585
H           3.22926226309495   -1.84068335074175   -0.62391029595777
C           4.74686008943054   -0.96969597798929   -2.65418636503330
C           5.21846477364043    0.28679175207060   -3.03761588158926
C           6.54893903324822    0.62853020678655   -2.89060582838882
C           7.45897896433449   -0.27652343346597   -2.33277369462669
C           8.81587763524708    0.08067688228144   -2.07181309567404
C           9.67707657446544   -0.79568349265066   -1.49856222447656
C           9.27783716349144   -2.12955270882760   -1.16884484231101
C          10.14847003661583   -3.05569430952271   -0.55873207678437
C           9.68728259034328   -4.33050535957341   -0.23023736837406
C           8.38817767500769   -4.71563036770195   -0.50321106264889
C           7.48883158192691   -3.81795485824158   -1.08941305436230
C           6.13394500814734   -4.17729860444967   -1.36277160775959
C           5.25606061573677   -3.27785481869434   -1.87202507719529
C           5.65146083221550   -1.93499271578376   -2.16656562319796
C           7.01527050139307   -1.57815795772618   -1.98315648025438
C           7.93094650008046   -2.51079073052581   -1.42151728769171
H           4.51803667728471    1.01860948151543   -3.42424278065031
H           6.88797036305403    1.61698126242509   -3.18004774102211
H           9.14132454558548    1.08444195365652   -2.32322330566676
H          10.69069314981529   -0.48327813419897   -1.27652013294040
H          10.37044778908645   -5.03481808285727    0.23231963978435
H           8.05595122056190   -5.71680580516801   -0.25139624976992
H           5.81819208001226   -5.19274975617603   -1.14772380618681
H           4.23489841769848   -3.57625460408190   -2.08151283760108
O          15.53547775112509   -2.10209798696125   -2.60690297510113
S          14.97704059862759   -1.10845483162284   -1.71702502480185
O          14.55355449994040    0.15883693808089   -2.27075317204383
C          13.68292412007570   -1.81117600553403   -0.72275659798116
C          12.43646280357701   -2.20108589104160   -1.15160461546680
C          11.53263265922637   -2.68618057684762   -0.19692854660823
C          11.94185224713477   -2.80357607125523    1.13439330722164
C          13.20493888595747   -2.40533703318636    1.54770388499639
C          14.09009061201089   -1.87938260073358    0.61171191691286
C          15.42871246608190   -1.33322388877295    0.84239740350730
C          16.11192421699299   -1.21630303030967    2.04913048005111
C          17.35872280431823   -0.60744757422088    2.06579434528831
C          17.94788664726712   -0.10927227068219    0.89960418041074
C          17.27819547518370   -0.25433089552715   -0.32251517312787
C          16.04161183319323   -0.85355218064375   -0.31758348540078
H          12.16336532524929   -2.14267652151451   -2.19764278235557
H          11.24013810028442   -3.18690057857916    1.86714251017899
H          13.48623169959579   -2.48817124490425    2.59112783887839
H          15.67750246988798   -1.58892566327974    2.96957941061192
H          17.89670806962014   -0.52791503551621    3.00389371422345
H          17.71367856985436    0.12088681056928   -1.24019028889227
C          19.27203105285730    0.54274345944675    0.94038314433844
C          20.28344476050075    0.05787155795574    0.11061400548253
C          21.55661369885365    0.59587184799017    0.14077520577017
C          21.86354978967989    1.65233785505367    1.00563745733797
C          23.17527902803267    2.21699271594702    1.07474231249668
C          23.45498860992016    3.24545518736017    1.91294031150426
C          22.44524600233649    3.80931711861133    2.75435402667235
C          22.71192197455302    4.87469678196532    3.62179310230935
C          21.70970192596675    5.40479531107455    4.41967700934177
C          20.42293732614612    4.89159494628984    4.37163644263937
C          20.11421238087067    3.82470664597521    3.52034648598868
C          18.79580742517470    3.28101855916569    3.42826118058192
C          18.51867873445618    2.23877516535936    2.60617907216470
C          19.53180923323893    1.63044230478992    1.79814505778736
C          20.84093694465656    2.18285343374217    1.83531090167951
C          21.13275927690192    3.26966085868450    2.70289720555567
H          20.06831598701782   -0.77477800676043   -0.55036002314670
H          22.32880346102597    0.19195383653630   -0.50474366859004
H          23.94656893213681    1.79924418682915    0.43613926768987
H          24.45444521304753    3.66530274456335    1.95844485957240
H          21.93399018214204    6.23072807815799    5.08584970606267
H          19.64442303717454    5.31672248472080    4.99593190859657
H          18.01119564622010    3.72903936359680    4.02913712351102
H          17.50433455781497    1.86160781943781    2.53897594515664
H         -26.17050262338961    2.67630070797202   -0.73114952617260
H          23.71443323359005    5.28659297717196    3.66553999240565
