   110
       -187.46214163
N         -15.42119788653506    2.32152419427406   -3.14767282530497
C         -15.91210071499889    1.90334995605607   -2.19432597909451
C         -16.53285419450373    1.40194832925833   -1.01440846489102
C         -17.84413991929156    1.78282469280284   -0.71660173232425
C         -18.45819866236061    1.32336734637330    0.43597611297059
C         -17.76941116772394    0.47860841911662    1.29778425616192
C         -16.46681862800113    0.09940919493071    1.01078348995355
C         -15.82766433400407    0.55590900201580   -0.14127252823093
H         -18.37280765555865    2.44183259355197   -1.39551433292691
H         -18.25063084532227    0.11191588848617    2.19734080475209
H         -15.94103889870953   -0.57529954082451    1.67713330861144
C         -14.44576594150939    0.13569068856340   -0.45796721647597
C         -14.20304847784158   -0.52982385597045   -1.65926330506023
C         -12.93704350331707   -0.97725640210977   -1.98672736789094
C         -11.85819274557465   -0.75652696227989   -1.12314283827289
C         -10.54457444316132   -1.23123741840564   -1.41803881999946
C          -9.50086381615157   -0.97857979385169   -0.58917665036601
C          -9.66783516948310   -0.21991274425785    0.61173827358564
C          -8.59775571139853    0.08330745155157    1.47880754224061
C          -8.85504507117657    0.69395045281031    2.70996790820317
C         -10.12916717199233    1.08574523588189    3.06487932698676
C         -11.20470545881879    0.87478544843552    2.19289779711044
C         -12.52148104228024    1.33312234154020    2.49768683634211
C         -13.55791900333148    1.11211884387910    1.65163976085876
C         -13.38227286236234    0.38703253011325    0.43125027695045
C         -12.07471800559186   -0.05784425538319    0.09272314946662
C         -10.98148895647135    0.19613997116027    0.96643084723831
H         -15.02934394705923   -0.71529399607066   -2.33652421020154
H         -12.77435851759795   -1.50659246513968   -2.91904303392712
H         -10.39860153247277   -1.81061144845905   -2.32357292725055
H          -8.52090276574258   -1.37998117630062   -0.82073772561610
H          -8.02029068843946    0.88116360050092    3.37683139794923
H         -10.30234796899006    1.57721096004913    4.01591953136026
H         -12.67423515608720    1.87826597348496    3.42320120571278
H         -14.54326516450930    1.49463754683382    1.89263900325899
C          -7.18888128176637   -0.16380844071425    1.14476155679803
C          -6.63624933909984    0.12147115705080   -0.10782126377398
N          -5.34869202605854   -0.03295504114866   -0.35872136037986
C          -4.55809882799285   -0.47068815818968    0.63211790340505
C          -5.10812866274083   -0.72960048857016    1.88954416610733
N          -6.39671300397276   -0.57264707608617    2.14417302843136
H          -7.24520854218363    0.52237411570253   -0.91183330793627
H          -4.49650576305515   -1.06606446734931    2.72052151284130
N          -0.67722623845416    0.16372092964797   -3.74848140086797
C          -0.96141810223036   -0.05270498388930   -2.65439175137468
C          -1.34202212358484   -0.34203912803082   -1.31173738893018
C          -2.69207034316159   -0.28936202677940   -0.97439692812500
C          -3.13006258627013   -0.59974857689262    0.31527269694094
C          -2.17646653026889   -0.99877422875461    1.25821342090822
C          -0.83394390735304   -1.05247958463048    0.92802682390209
C          -0.38512906743201   -0.71145065795950   -0.34793545516867
H          -3.41937764193288    0.00438992117993   -1.72307023451302
H          -2.47381197623038   -1.25970887085639    2.26706956421812
H          -0.11200662954691   -1.33747158528981    1.68553801267908
N           4.05508679828950    2.39487297578751   -2.77007103060561
C           3.59453513691221    1.48367738013085   -2.23933940579916
C           3.02000814862573    0.36576681011414   -1.56734665165825
C           1.64530596452541    0.34327741921760   -1.33497278804599
C           1.05852707351597   -0.71449929306152   -0.64408416119514
C           1.87287374954991   -1.75927962621569   -0.19712848262835
C           3.23794223784459   -1.74173612658890   -0.42827716847576
C           3.83750455862228   -0.67995515371574   -1.10441596730957
H           1.04042420448568    1.17447989309248   -1.67698632447049
H           1.42923376716879   -2.60260261511074    0.32020578134876
H           3.84964878264326   -2.57195905965450   -0.09339064672944
C           5.29411246651351   -0.64818425407066   -1.35138037963277
C           5.75015648961133   -0.57168374534975   -2.66719824120964
C           7.10134812835065   -0.55020615957683   -2.95574102209027
C           8.04941658956285   -0.57991718097641   -1.92685636445392
C           9.45188437856755   -0.57825663918556   -2.19213142091627
C          10.35957746091723   -0.56015318711036   -1.18435373003189
C           9.95321812641663   -0.53259984057357    0.18671286072503
C          10.87239302359735   -0.47006386471682    1.25490866501745
C          10.41631241897050   -0.60430401424030    2.56954868046058
C           9.07097226936833   -0.71483057569268    2.85478166606683
C           8.12255650800066   -0.69344485028500    1.82411661548622
C           6.72060594132803   -0.72727464434962    2.08937558487773
C           5.81196873594104   -0.70549226550031    1.08280958378921
C           6.21840486171297   -0.67720443307242   -0.28836749793766
C           7.60970378514442   -0.63045681699885   -0.57863972541469
C           8.56333153586083   -0.62317123716232    0.47677269274741
H           5.02790246975704   -0.54696021306988   -3.47552235260894
H           7.43390268084801   -0.50637746414452   -3.98686882542002
H           9.77990063513220   -0.59813358922451   -3.22600493224480
H          11.41828747439262   -0.59349312306804   -1.41442712704430
H          11.14595825104711   -0.59306529898294    3.37209938450060
H           8.73818806850986   -0.79844223309926    3.88357689440267
H           6.39382420356277   -0.75608473288747    3.12359394067718
H           4.75219938210704   -0.70232675726623    1.31162636021149
C          12.30794143223025   -0.22523427970069    1.06493601064629
C          12.80987309059425    0.72305246888289    0.16786154767125
N          14.10527888263158    0.93942689162506    0.02804106767270
C          14.95144068427301    0.23538746249707    0.79300071743523
C          14.44349756263493   -0.65337248765094    1.74316045995294
N          13.14685392015114   -0.88113535477305    1.87666806161229
H          12.14455783191276    1.34108302904577   -0.42662346307838
H          15.09492799488314   -1.19497681602034    2.42153078287509
N          18.78563631291467    3.70879400684019   -2.09734934591989
C          18.48248520296561    2.85663116960152   -1.38631343662354
C          18.11097535562103    1.79737307366771   -0.50810341652129
C          16.76500190059248    1.52265379073592   -0.27700064551375
C          16.38390227761220    0.48802685708948    0.58141446544978
C          17.38240918508462   -0.27079160765399    1.20042767604358
C          18.72271155893045    0.00346518289994    0.97155144342575
C          19.09721579881434    1.03247522234249    0.12319127880644
H          15.99965129790584    2.11510404186317   -0.76553933602381
H          17.12075751643528   -1.08838456562682    1.86191865424793
H          19.48328132504051   -0.59512384799199    1.46023779692307
H         -19.47518246445204    1.62149030884072    0.66295779469671
H          20.14406564754522    1.24668655905328   -0.05568304516127
