   142
       -232.00880975
N         -18.51364258975722    0.29189882622536   -4.20891959481930
C         -19.09362405407144    0.13588418995059   -3.22706488141856
C         -19.82584979073527   -0.04274304290729   -2.01840896203470
C         -21.20764481007943    0.16565430210999   -2.01596109274711
C         -21.93191525624353    0.01668738272484   -0.84545878130232
C         -21.28308586351948   -0.34040224163179    0.33023502975912
C         -19.91131093793020   -0.54368185485235    0.33657519545264
C         -19.16331510720291   -0.39681546263366   -0.83057235660804
H         -21.70452805777771    0.44541030740083   -2.93766130639799
H         -21.84943187949539   -0.46388477430163    1.24634116770483
H         -19.41200518394140   -0.83979282479731    1.25240863793887
C         -17.70524389360178   -0.64312907685025   -0.83340515742230
C         -17.19394628148580   -1.63194798825139   -1.67346630631898
C         -15.84346412368966   -1.92450832397239   -1.69526801891292
C         -14.95101092046146   -1.22811745563596   -0.87271524366966
C         -13.54850140015950   -1.49589862188656   -0.88346157927296
C         -12.69465779202533   -0.81214882086854   -0.08252938889866
C         -13.16077772464048    0.20043855099349    0.81457234960838
C         -12.29439825323998    0.92172396309827    1.65988990988571
C         -12.79968559592746    1.95077222985229    2.45496833019387
C         -14.14549059558754    2.26521081990114    2.45245896280701
C         -15.03993021321158    1.55487390071339    1.64407968667638
C         -16.43468844210306    1.86017616608034    1.61361610687485
C         -17.29097841188053    1.16372612696595    0.82638735922462
C         -16.83565284886635    0.09157736578572   -0.00443160587703
C         -15.44587937803173   -0.20840341878900   -0.01916400667574
C         -14.54798854755439    0.51371668657898    0.81460925380876
H         -17.87459673006364   -2.18818083338332   -2.30847841588874
H         -15.46803006592567   -2.70097597928318   -2.35252212910350
H         -13.17602678819262   -2.25859684570011   -1.55910127066655
H         -11.63127127697914   -1.01806913081228   -0.12722082651060
H         -12.12202438938062    2.49875539004385    3.10100487387825
H         -14.51690245273949    3.06508175572735    3.08370927986132
H         -16.79590710889598    2.67382123070839    2.23386322915803
H         -18.34293545758695    1.42552147241765    0.80652249630756
N          -8.23115892815571   -3.31666558728161    2.55602468031371
C          -8.56733668322238   -2.23606412182968    2.34630118114588
C          -9.00620429706654   -0.90772819929666    2.07796762223003
C         -10.37717785470589   -0.65059161196295    2.00925758711946
C         -10.84778610353787    0.62888103802415    1.72559053952250
C          -9.92207271583223    1.65774557981215    1.53313487127696
C          -8.56289528984466    1.40610270570866    1.59309310698768
C          -8.07832540796244    0.12390975192234    1.85535634837447
H         -11.07560625512649   -1.45702748506380    2.20083610799599
H         -10.27426970211578    2.66077933918719    1.31987596691246
H          -7.85959007800073    2.21953424854790    1.45344126875622
C          -6.62400567927243   -0.11180210641600    1.94878122405639
C          -6.10103144329583   -0.66562965960049    3.11737809768162
C          -4.73768782873182   -0.80606634845996    3.29501951993432
C          -3.84307467359318   -0.38608968191122    2.30419745007673
C          -2.42834760363304   -0.44905710237196    2.48667419093493
C          -1.57379035747219   -0.02403458761255    1.52348052797829
C          -2.04956309345463    0.47900338854616    0.27127763233641
C          -1.18328479992726    0.93511684140816   -0.74178654699054
C          -1.71046024211225    1.45813820866242   -1.92232951252026
C          -3.07508166443663    1.51894200137131   -2.13391195705394
C          -3.96684143571770    1.07750023292224   -1.15022949557268
C          -5.38171180871053    1.12778403624898   -1.33724525253894
C          -6.23536856932172    0.74107994387932   -0.35744993290679
C          -5.75620874775180    0.26551913626786    0.90405210163836
C          -4.35229249830204    0.14108183610570    1.08907737221842
C          -3.45491651920049    0.56098460339331    0.06857070853848
H          -6.77839232980975   -0.96324756666681    3.91006912658100
H          -4.35299594553791   -1.22577001842774    4.21791976697689
H          -2.04813981185801   -0.83267091839709    3.42758483164290
H          -0.50462711601545   -0.05454748968120    1.70000732793705
H          -1.03145356954018    1.80494417286079   -2.69400840388662
H          -3.46209289476080    1.91589964820175   -3.06604257263180
H          -5.76179232846391    1.48501667487829   -2.28861962944363
H          -7.30559958024337    0.77433592956106   -0.52803512237733
N           3.55687228802859   -2.47330057429545    0.39004776513171
C           3.03413370277754   -1.47997186689997    0.13643161127072
C           2.36726906366456   -0.25759934366313   -0.16621367937908
C           0.97910574565703   -0.26608356544719   -0.32197036191890
C           0.28650538919559    0.91367054790158   -0.57918716526262
C           1.00633352573272    2.10499677289808   -0.69812005791222
C           2.38022843314271    2.11995464766347   -0.53247653742802
C           3.08474623948312    0.94715026478719   -0.26612877493987
H           0.44496213344916   -1.20662998113786   -0.25229597929111
H           0.47757628248066    3.03018683165290   -0.89845474218980
H           2.92348864931316    3.05459969984464   -0.61766599693742
C           4.54209834467117    1.00981781980013   -0.02486281006154
C           4.99002023334568    1.82418169220978    1.01557842994310
C           6.33261588121702    1.91062812764399    1.33168243303089
C           7.28046867539590    1.17765259462512    0.60942165583983
C           8.67438369488560    1.24299854788442    0.91252268831331
C           9.58127804579048    0.51749070601265    0.21323879743451
C           9.18247324245038   -0.34078335051003   -0.85977095997903
C          10.10607461144093   -1.10991057637554   -1.59492284638229
C           9.66976215538425   -1.85244193584907   -2.69204410693807
C           8.33546872990465   -1.88248639034729   -3.05309531399915
C           7.38272366112756   -1.16619429655466   -2.31971873032291
C           5.99510796039777   -1.18682757183880   -2.65787212884610
C           5.08250098688590   -0.49452786154835   -1.93247147134970
C           5.46999388007246    0.28668337873257   -0.79830132881755
C           6.85108269018497    0.36060514509373   -0.46843521498587
C           7.80663127428937   -0.38132671529427   -1.21609451056347
H           4.26342091329262    2.38037687906513    1.59821353057899
H           6.65736839072319    2.54345290257042    2.15026444263981
H           8.99453596131275    1.89500684403326    1.71836927366206
H          10.63607524143525    0.59648939228933    0.45121917175301
H          10.39153031538676   -2.43526695853965   -3.25438801034282
H           8.01822389251725   -2.47509304506576   -3.90421643282661
H           5.68438253680657   -1.77193575929791   -3.51705069835545
H           4.03593668609511   -0.51515723274947   -2.21458283818432
N          13.86725371372728   -2.32835769128659    2.82306379247753
C          13.60638696774489   -2.02755985577874    1.74316139461284
C          13.26071319627822   -1.64661860782725    0.41459196515887
C          11.91233489140290   -1.55755904148993    0.06570834261309
C          11.53390477179643   -1.17196798714945   -1.21806074766022
C          12.52992244279833   -0.88705586963061   -2.15506291310159
C          13.86901202631488   -0.96227843572141   -1.80944991673679
C          14.25999127297285   -1.33755938749746   -0.52438747151324
H          11.15745097702913   -1.81387250635973    0.80008640097994
H          12.24940875250609   -0.59052676101284   -3.15962612321204
H          14.62824970721248   -0.74717539852823   -2.55317920125293
C          15.68894226472575   -1.45502350800695   -0.16610109634102
C          16.16412971512992   -2.68217032373804    0.29750140197784
C          17.49777079936442   -2.86411205268347    0.61199067264951
C          18.41105664115656   -1.81252472718090    0.47848038089160
C          19.79839058311366   -1.97182647107249    0.78546189874748
C          20.66981340840953   -0.94099329941668    0.65773687419834
C          20.23160718484463    0.34676949428745    0.21557198898710
C          21.11389337727665    1.42490395474181    0.08253496531468
C          20.65808609730281    2.66256650942981   -0.34451545883396
C          19.31883080113450    2.85685975152017   -0.64537781358418
C          18.40307289017805    1.80544660529464   -0.52636923657560
C          17.01188108724329    1.97093140164262   -0.80993268317183
C          16.14083617871325    0.93794890287932   -0.69522466262897
C          16.57328929896786   -0.36613570679478   -0.29319740317880
C          17.94564490063244   -0.54915746572690    0.02898258378135
C          18.85848048804479    0.53252100065857   -0.09499981075779
H          15.47295367575944   -3.51224864062131    0.39375160405460
H          17.84329033133252   -3.83079309510118    0.96162752076877
H          20.13879404236220   -2.94435266212842    1.12553866981068
H          21.72087249465199   -1.07292196373448    0.89262747367143
H          21.35551114310403    3.48744594079725   -0.44213583924377
H          18.97184553070284    3.83015983064182   -0.97528285212912
H          16.66201203284381    2.95191098106511   -1.11446044384875
H          15.08708393268512    1.09514879828878   -0.89733838908529
H         -23.00378427563550    0.17715366819161   -0.84885163869092
H          22.16351327799165    1.28507804654661    0.31794499062935
