   150
       -275.65820448
O          24.29174893180793    3.36410486097698   -1.06500790101983
S          24.03265153058463    2.59275390310954    0.13031116665139
O          23.68143183664319    3.29168007192595    1.34610201774577
C          25.35055140413800    1.44173306800532    0.42939843449242
C          26.64835824766997    1.74451191716171    0.77306682962237
C          27.53023880553327    0.68365912531657    0.96540678476615
C          27.09901020675078   -0.62794084429073    0.81147355914486
C          25.78441201248906   -0.91683343432110    0.46413132393350
C          24.89118558198224    0.13211637055528    0.26893885493160
C          23.47358186875022    0.05341647574758   -0.09316578114280
C          22.70133620722454   -1.08329070293867   -0.31928283835112
C          21.36320664200504   -0.93712462225539   -0.64533741561708
C          20.75807210901982    0.32266351949229   -0.75712551115551
C          21.53443709388576    1.46891645716685   -0.52883009974821
C          22.85918537654903    1.30250022896876   -0.20706167068165
H          26.97017883257598    2.77158959239057    0.88994741202723
H          27.79896943314785   -1.44161588313425    0.96516471187291
H          25.46333526952562   -1.94544969839402    0.34846983859782
H          23.13633609377682   -2.07279843551076   -0.23998689349232
H          20.75438321111156   -1.81776746529911   -0.81956495062385
H          21.11367082571862    2.46449958645122   -0.58882470414931
C          19.33166684235161    0.40046385794299   -1.08902910590573
C          18.66193457590095    1.58928795375691   -1.39456038379893
N          17.36322593801004    1.62180310523469   -1.63249680073740
C          16.68029371713343    0.46913739700458   -1.59040159339668
C          17.36151986527069   -0.72755751534201   -1.34704117949383
N          18.65764333505244   -0.75823599567486   -1.09465853952399
H          19.18346027613978    2.53926236919507   -1.44876360582329
H          16.85133068403040   -1.68522193795658   -1.35598298695151
O          11.80813870466930   -2.57173114389684   -2.46687708591678
S          11.73988244181046   -1.52375538348695   -1.47286350465918
O          11.67828457133156   -1.89483354757107   -0.07628903924854
C          13.02253385654267   -0.32442304031640   -1.74331953842603
C          14.37048126856349   -0.51682683080309   -1.56432158773173
C          15.23245249812435    0.56445018031331   -1.80272914833327
C          14.68609127940494    1.78512769119514   -2.22408036258647
C          13.32369541725924    1.95806332345032   -2.40081794260116
C          12.46476820702746    0.89044161887986   -2.14976396675194
C          11.00322161320705    0.86661439167022   -2.21810616760236
C          10.13965978062212    1.90449106221398   -2.55680731719629
C           8.76948060546884    1.69114553051122   -2.50321114883407
C           8.23216522868801    0.46176916789680   -2.11184702896322
C           9.09760047343852   -0.59727972595826   -1.80360092340333
C          10.45046819471551   -0.36676594827166   -1.86312880007688
H          14.74052278919196   -1.47718337633262   -1.22868498159030
H          15.36005780700892    2.61543326396391   -2.40552378201755
H          12.93403001798822    2.91738509791152   -2.72089534384797
H          10.52719167955007    2.87429978765166   -2.84655623493957
H           8.09615003311504    2.50635476703589   -2.74428310273674
H           8.71007650114672   -1.57280718091175   -1.53814660487327
C           6.76854537907020    0.28384877440365   -2.03561077528347
C           5.99619018634949    0.58884749449677   -3.15667255335005
C           4.62574159564731    0.41034051683938   -3.15241931460197
C           3.97424420807133   -0.07044746590563   -2.01091637130903
C           2.56392722638476   -0.29100109841606   -1.98402238605509
C           1.94130802902778   -0.73164843389893   -0.86297039504096
C           2.66797584695932   -0.98567382837618    0.34293800883738
C           2.04174127495072   -1.42478911972113    1.52709022199174
C           2.81459377922147   -1.74716102521419    2.64318162839567
C           4.18822728099756   -1.59687413302307    2.63012225797994
C           4.84069793473533   -1.11840723681312    1.48815361845164
C           6.25053708078698   -0.89639451971681    1.46218295799854
C           6.87099637502855   -0.43883480400484    0.34675826126724
C           6.14560475815323   -0.18067378726612   -0.85914015445522
C           4.73487083446243   -0.35928903914016   -0.84795068959886
C           4.08042057287349   -0.82421169888887    0.32633459751797
H           6.48886000746725    0.94658108574736   -4.05440179311067
H           4.04708650584558    0.63832161519440   -4.04076004282120
H           1.99614072161847   -0.10218842519763   -2.88882600036435
H           0.87250843434102   -0.91179872005440   -0.87520152253356
H           2.31988678008260   -2.08911420403818    3.54597378769104
H           4.76717658095743   -1.83538315315848    3.51550368752476
H           6.81864082465426   -1.09142656859198    2.36545272179092
H           7.93832921489953   -0.25127722521052    0.36459809340113
O          -2.68163186086395    1.80966277266684    2.07498463373657
S          -2.80395690729035    0.71535086865319    1.13772208316882
O          -2.84962750940392    1.01512132002817   -0.27639327659700
C          -1.58806150429023   -0.53505217864608    1.46832912494546
C          -0.22777394069378   -0.41141827854133    1.32691535510039
C           0.57331002328499   -1.52016219700075    1.63495307173941
C          -0.03165599506314   -2.69579886473452    2.08766102564865
C          -1.40888369854501   -2.80170657933312    2.22172570496426
C          -2.20949100941855   -1.70761521423042    1.90594910413392
C          -3.66722695003726   -1.60169657447107    1.97510749128105
C          -4.58697205506006   -2.57454541263031    2.35996163167575
C          -5.93732061958885   -2.26805677776814    2.35142665806572
C          -6.41028218029697   -1.00487212177107    1.96922095054457
C          -5.48616353456454   -0.02424595002497    1.57835704898399
C          -4.15200925430348   -0.34831614927365    1.59291850079941
H           0.21600526897165    0.52364203187918    1.00908510141153
H           0.59129666867991   -3.55159688551335    2.32329309443301
H          -1.85156845013076   -3.72877017033226    2.56704435754885
H          -4.25467520483846   -3.56122728612078    2.66092862832145
H          -6.66054896604373   -3.02064762144257    2.64654694441661
H          -5.80126820815462    0.96088555867541    1.25898368533243
C          -7.85479876362108   -0.75491151501712    1.97182973539180
C          -8.42945468668392    0.51104057397688    1.82387408606999
N          -9.73768325791693    0.68609958307690    1.77908342414566
C         -10.52651343697553   -0.39152844605971    1.89405003357168
C          -9.95231464024755   -1.64883788367800    2.10483967954851
N          -8.64378844845427   -1.82588275552019    2.13587328210465
H          -7.82193076310949    1.40638709005203    1.74178870877572
H         -10.56072851693943   -2.53479025508755    2.25424547150965
O         -15.75381788724734   -2.80740492701548    2.53913520231967
S         -15.56296361798197   -2.03579408436233    1.33087180337954
O         -15.44633349231243   -2.73624753653611    0.07121756762933
C         -14.22036951566160   -0.88973027398572    1.53181607917239
C         -12.88965768528145   -1.20512084983197    1.65578527638245
C         -11.96928291322957   -0.15442784243705    1.78814631630056
C         -12.44287669188940    1.16522067310824    1.79231186801009
C         -13.78930153559179    1.46215014169959    1.66619837176369
C         -14.70425152901793    0.42084808082477    1.52844951896216
C         -16.15377288602603    0.50572069367015    1.35043360351320
C         -16.94653081360769    1.64810790491931    1.28816653225599
C         -18.31154983254749    1.51525818694268    1.07770118478870
C         -18.91265231721593    0.26161595645368    0.92711681099854
C         -18.12248195595972   -0.89236787518810    1.01542207512645
C         -16.77246618151402   -0.74028122053198    1.21795029296881
H         -12.57334205866010   -2.24015057135583    1.63289892965383
H         -11.72249266119809    1.96991129651560    1.89248704153159
H         -14.12151315305987    2.49374926034883    1.66884548037327
H         -16.50769155182027    2.63266164676477    1.40102743224214
H         -18.93109413349552    2.40456560524862    1.04708431162477
H         -18.56322433698348   -1.87507406539546    0.90320169243595
C         -20.36706022179494    0.13790616897185    0.70923725690592
C         -21.10435297368102   -0.67116794219435    1.57485459180260
C         -22.47600901382014   -0.79018209583752    1.45268930329884
C         -23.16357538284868   -0.10357054142392    0.44552429810488
C         -24.58357664291177   -0.19115956233791    0.30452113270980
C         -25.23472758885006    0.47373234193735   -0.68161348504234
C         -24.52355183916810    1.28247716109676   -1.62274148454762
C         -25.17598414213561    1.97134751867896   -2.65149172290497
C         -24.45785180443466    2.74254575197846   -3.55233249571590
C         -23.07896100085968    2.84431530891306   -3.45308072531921
C         -22.38762764245137    2.17342340716674   -2.43817333146027
C         -20.96531205673634    2.23729506648106   -2.31518160716359
C         -20.31382006202805    1.58855361628152   -1.31837799340988
C         -21.01833649340771    0.81721343159019   -0.33967186183431
C         -22.42923386970996    0.69959283843069   -0.46618529134480
C         -23.11203367493309    1.38504842094310   -1.50675646137681
H         -20.58898626766430   -1.19315649947502    2.37388761987614
H         -23.02781150241028   -1.41433542072905    2.14697734229560
H         -25.13084525165656   -0.80644571199773    1.01100752918624
H         -26.31296811001579    0.40124367712561   -0.77820511492295
H         -24.97937754451982    3.26936258135893   -4.34395704391198
H         -22.52574317139932    3.44662307425472   -4.16557562063588
H         -20.41061037379979    2.81405831734018   -3.04796011133279
H         -19.23191376663429    1.63491232634139   -1.26348703801494
H          28.55952325777460    0.88593670300552    1.23742873782746
H         -26.25442886432354    1.89703114995678   -2.74074235942827
