   156
       -268.75303087
C         -25.51078681451039   -1.30074996067593   -0.81050592463854
C         -25.61094306584916    0.00246743048297   -0.34838904745208
C         -24.47260420560940    0.73957349593499   -0.06140233525597
C         -23.20113725365249    0.18311762370304   -0.24002651918465
C         -22.00490328806935    0.90297133771507    0.06510789144765
C         -20.78106720250169    0.35355076646939   -0.13353859199924
C         -20.62906890597570   -0.96660980180112   -0.66567117043072
C         -19.36983256776221   -1.55309331224533   -0.90338095942322
C         -19.29411279896810   -2.87972362074431   -1.33128110501619
C         -20.43362987482607   -3.62425398768377   -1.57046541853441
C         -21.70234295436003   -3.06279840286903   -1.38770678141106
C         -22.89953162542501   -3.79734056358467   -1.65423743652705
C         -24.12187868200278   -3.23920710895438   -1.47314418136916
C         -24.25872460331849   -1.89589578108928   -1.00172612038890
C         -23.08538541563443   -1.14675523286232   -0.72139034435929
C         -21.80337547291955   -1.72528661914084   -0.92286984891122
H         -26.58934550956832    0.44864117034042   -0.20755345398969
H         -24.56180090502616    1.75663076789613    0.30477679052780
H         -22.09601412039241    1.90509717830218    0.47095165128490
H         -19.89042101266938    0.91251316604163    0.13091207312002
H         -18.31919439532063   -3.32154992025040   -1.50683124182013
H         -20.34708175513395   -4.64864208724052   -1.91569077684039
H         -22.80488996615679   -4.81824384419842   -2.00918815739077
H         -25.02375991629103   -3.80541171309650   -1.68112966816739
O         -13.84146820095797   -2.29238157021261    0.38146222282716
S         -14.41972137546160   -1.10494194072630    0.97039493454253
O         -14.65035027784056   -1.08026920059918    2.39758124976488
C         -15.88956867058022   -0.62799456969509    0.09371905841544
C         -17.06178031956599   -1.33910630583132    0.00792534012065
C         -18.11291422555092   -0.79701166980013   -0.74413160636225
C         -17.92991443491666    0.43265650005246   -1.38532521643420
C         -16.73738605036500    1.13511898363275   -1.28850905596951
C         -15.69319106774778    0.60298689235727   -0.53751801885687
C         -14.35491603960081    1.15676275718738   -0.33054177961326
C         -13.82766093153394    2.34472396790236   -0.82837724372649
C         -12.50777335968928    2.67323339382854   -0.55493958562545
C         -11.68595705025877    1.84017520426709    0.21286858248241
C         -12.22561555191083    0.65272506427850    0.73772549944210
C         -13.53101279819009    0.34501850157066    0.45509650287669
H         -17.17694607919505   -2.28792355683539    0.51699402883844
H         -18.73078126396682    0.83271226257050   -1.99707344095715
H         -16.62267259023672    2.08190284712486   -1.80349512890331
H         -14.43523084683999    3.00814670506450   -1.43304621429580
H         -12.11516251891519    3.60087863015825   -0.95535044201907
H         -11.60747861385896   -0.00165927325187    1.34040236735010
C         -10.26791873291061    2.12625025386001    0.45724840979320
C          -9.55295582248472    3.15688207759157   -0.15797307400218
N          -8.24411195687134    3.28951395379883   -0.01512445061970
C          -7.60498369263356    2.40337739539734    0.75823132433217
C          -8.33816716145452    1.45118567259949    1.47448450976570
N          -9.63980779533589    1.30517024609645    1.31145064872635
H         -10.03888905618867    3.88418605366337   -0.80046115916361
H          -7.86055465918016    0.80821303903331    2.20674587589819
C          -6.14426401765575    2.52923986795246    0.84509197419921
C          -5.60667507321241    3.81488418932605    0.94527449660861
C          -4.24746341189011    4.01546565596091    1.07742027010654
C          -3.36706997246774    2.92630002482065    1.10438838872703
C          -1.95621526663749    3.10087457195862    1.23923033106306
C          -1.11193562865335    2.03960412594686    1.24675960152539
C          -1.59897640407953    0.70019696277780    1.12642645005683
C          -0.73953770534766   -0.41519611072213    1.12664926745473
C          -1.26756566822483   -1.69712705958662    0.96573976864550
C          -2.62508705344287   -1.89747083065381    0.80121011463009
C          -3.50807752133397   -0.81192010333448    0.79262909256470
C          -4.90896674662850   -0.98106982574286    0.58052015036496
C          -5.75448118115508    0.07923786204678    0.58323437689762
C          -5.28565341312041    1.41005833665884    0.81792312318430
C          -3.88514512300405    1.61189338656743    0.96553277497776
C          -2.99720601189593    0.50064980217507    0.96471175524961
H          -6.28547695521063    4.66080313723394    0.93252997860478
H          -3.85339278600107    5.02203165693533    1.16523584498077
H          -1.57030343270091    4.11100951289449    1.32772621667507
H          -0.04239212600163    2.19533507638987    1.33377071271198
H          -0.59684590726113   -2.54927092619849    0.98533865846256
H          -3.01346801355572   -2.90248116083108    0.67769824831740
H          -5.28490472166825   -1.98240254395519    0.39910840575325
H          -6.80693424549101   -0.07655851111135    0.37667100098025
C           0.71967185027636   -0.27090283165804    1.32455654310776
C           1.20167510038485    0.23516543657204    2.53175155096831
C           2.55911565238857    0.30939903317658    2.78561659509771
C           3.48778368044851   -0.12368176977573    1.83245109009432
C           4.89365169065594   -0.10451393815271    2.08121631937264
C           5.78085774025401   -0.52887576686642    1.14746679372919
C           5.35022036155445   -0.99633720967831   -0.13446077688785
C           6.25074245156519   -1.43986407751185   -1.12416917436171
C           5.76294981650708   -1.95335992296458   -2.32658324010144
C           4.40696619925001   -2.00639646070685   -2.58699486164837
C           3.48293305306842   -1.55611024942341   -1.63763802262986
C           2.07650653189835   -1.58078649035314   -1.88436666751243
C           1.19055422246624   -1.16505852105298   -0.94620261197648
C           1.62603508333250   -0.69126696172774    0.33138926997195
C           3.02202245515117   -0.62047551208673    0.58739684608606
C           3.95346847513517   -1.05601498819201   -0.39517703008318
H           0.49449273382740    0.54813925659200    3.29221582022790
H           2.91061805216684    0.69372199402680    3.73690266288391
H           5.24025262641647    0.24909566551320    3.04645991571228
H           6.84103244545919   -0.52953744495126    1.37323315935399
H           6.46732503662082   -2.29097641694980   -3.07937577258909
H           4.05263414691204   -2.39491159283954   -3.53549605748176
H           1.73086219623272   -1.93985559391206   -2.84805701996919
H           0.12739228130259   -1.18076630132380   -1.15853146196902
O          10.74663645705933    2.17807126466014   -1.09684538076449
S          10.74986019946768    1.19632128467333   -0.03476499717182
O          10.48001823402452    1.63546938399563    1.31680007523951
C           9.71643454194258   -0.18598614594023   -0.45642084548256
C           8.34971180794677   -0.17803220957208   -0.59803099716932
C           7.71324872356453   -1.38127936465249   -0.93351501549124
C           8.48428255469511   -2.53107825152062   -1.12850087533242
C           9.86314662075667   -2.51958869950150   -0.97817001771990
C          10.49823452338356   -1.33052819624967   -0.63168934595990
C          11.92703557527622   -1.09876950524650   -0.42169175636161
C          12.97053954223804   -2.01629256953843   -0.51410176415948
C          14.26554672772570   -1.59101038509199   -0.27350314569279
C          14.56418049598147   -0.26215425325284    0.06072332014221
C          13.51381562905641    0.66428460497575    0.15087071258851
C          12.23531822150018    0.22272683340367   -0.08935665225061
H           7.78220397416221    0.73619019714010   -0.47816283629708
H           7.98664828380610   -3.45937090331922   -1.38684293804531
H          10.43371512143038   -3.42889867876283   -1.12744654422901
H          12.77688634779432   -3.05151471419034   -0.76995508046283
H          15.08397449239803   -2.29953875737646   -0.34213612332383
H          13.69010444520480    1.70337032666585    0.39800663861199
C          15.96369970502248    0.10693449710497    0.30088448800971
C          16.38376894342589    1.36513808617227    0.73938636146345
N          17.66097694986601    1.66075639712489    0.91828232662720
C          18.56752417733029    0.70970262288499    0.66071380157591
C          18.14492587251296   -0.56982344434592    0.28563088361933
N          16.87063582135610   -0.86149401796932    0.10170166154746
H          15.67524910529457    2.15739780684046    0.95801753761280
H          18.85440100584054   -1.38227161677514    0.16417397619392
C          19.97617006173452    1.04749510024184    0.89989834539388
C          20.26706850064534    1.81227078312066    2.03347515618365
C          21.56879570136172    2.08206902890578    2.40396346232655
C          22.63994638353045    1.59347462533581    1.64502049857809
C          23.99894139197655    1.81577703118619    2.02683780988567
C          25.02656928804258    1.34185747322108    1.27928972870919
C          24.78757708640622    0.61302879635264    0.07250943493242
C          25.83369835932557    0.11774588043316   -0.71454052323921
C          25.57036425078873   -0.57625655633735   -1.88532836981940
C          24.26540342298856   -0.78842949609914   -2.30211193042556
C          23.19016516164017   -0.31447870107356   -1.54212061629565
C          21.83256736794553   -0.48870318380050   -1.95156225376086
C          20.80289092398035   -0.04751474391916   -1.18639103360171
C          21.02528464434752    0.60448545627394    0.06793255010287
C          22.36806303887417    0.86330137034408    0.45804261600713
C          23.44637081811369    0.38812558469388   -0.33603639877728
H          19.44150728843115    2.17334041193023    2.63735151657382
H          21.76959510567055    2.66293204002805    3.29753212902478
H          24.18996275373679    2.37413195512660    2.93733600243354
H          26.05458382588780    1.51256024119139    1.58133632027109
H          26.39297782230389   -0.95352796133629   -2.48299153923725
H          24.06959055082282   -1.32597696405339   -3.22363927302762
H          21.63922436340798   -0.97614601452641   -2.90143919988773
H          19.78487386898851   -0.16182000969080   -1.54130174466237
H         -26.40834784451260   -1.86949529887036   -1.02840119865305
H          26.85882972256613    0.28147183057555   -0.40012729039539
