   104
       -194.35791665
N         -16.79721367353478    2.78313522487288   -1.24104578759173
C         -17.30179987904073    1.78545441601377   -0.96872681143991
C         -17.95976948456515    0.57301418849268   -0.61272640464509
C         -19.34126464163537    0.47515664175978   -0.80027735222093
C         -20.01855792380609   -0.67126787683672   -0.42116552040744
C         -19.32369506493285   -1.72708029282312    0.15526036519677
C         -17.95394706838538   -1.63652074311302    0.34895347114953
C         -17.25162829247978   -0.49472887489598   -0.03430814143718
H         -19.87549597088550    1.30812328481335   -1.24221230575051
H         -19.85031904272924   -2.62626467177677    0.45368911110248
H         -17.41508827827172   -2.47040034449414    0.78512252322033
O         -12.22669590534123   -0.53240859959155   -2.81823485257220
S         -12.30588985806968    0.45117221409055   -1.76168690784386
O         -12.37983092733155    1.84927736386072   -2.11443590768497
C         -13.58898439528899    0.01125295384934   -0.61240114959358
C         -14.94056598998124   -0.00932036508278   -0.85850352285864
C         -15.79220524609196   -0.42535254069829    0.17338934682774
C         -15.24631929748710   -0.79922101481187    1.40451083436863
C         -13.87920669424881   -0.75880045001370    1.63757949646320
C         -13.02848678513993   -0.34989382838697    0.61514897735865
C         -11.56874019114464   -0.24462783370417    0.64371930462999
C         -10.70824951745107   -0.50629765416206    1.70559493327238
C          -9.34313747907941   -0.33571086999513    1.52873905048611
C          -8.80582028358695    0.08928868713042    0.30925491952626
C          -9.66912097782687    0.34921009960776   -0.76422631499436
C         -11.01791313544212    0.17825759744772   -0.56809890031169
H         -15.33335468994468    0.27083757071438   -1.82753268692754
H         -15.91030251008142   -1.11045522046315    2.20347089718569
H         -13.48505325104198   -1.04594433166007    2.60546359689292
H         -11.09294906530940   -0.84127098837454    2.66184322463459
H          -8.67521878553335   -0.55760456382864    2.35369336081678
H          -9.28799796468337    0.69556017066595   -1.71677793986135
N          -4.34358299582318   -0.65205132504858   -3.44757305797677
C          -4.75564939403103   -0.36825020285197   -2.41086771081890
C          -5.32284532699195   -0.00691016714628   -1.15495382144306
C          -6.70871228856284   -0.11622808343096   -1.02144396926258
C          -7.34993691873420    0.25217623507353    0.15891693822357
C          -6.57914659375713    0.77513176022232    1.20280305284574
C          -5.20941418945141    0.89160995131578    1.07382301015790
C          -4.54730814913420    0.48420626009256   -0.08835124229380
H          -7.28152028827065   -0.51588866282816   -1.85030430246885
H          -7.05938629507403    1.10673052685970    2.11633486057015
H          -4.62038521612152    1.29705226352042    1.88929702476303
C          -3.08178927464663    0.57600180265088   -0.10909143412632
C          -2.24881797715559   -0.27583028297545   -0.83890302602742
N          -0.93244260082230   -0.21136139047595   -0.74968167758756
C          -0.39390090035865    0.71134284036123    0.05840626402213
C          -1.22769794018222    1.57625510151689    0.77162143971505
N          -2.54539244787260    1.50022723114044    0.69975362326308
H          -2.65266371005144   -1.04779744139112   -1.48403918348838
H          -0.82803524884558    2.34899634792760    1.42032120044642
N           4.41516008325559   -1.78551665990371   -2.22590393252004
C           3.88280969942983   -1.04744330827121   -1.52204826757752
C           3.19310811660165   -0.16369058404045   -0.64154645088020
C           1.80484609626066   -0.09157736312668   -0.72101424422701
C           1.07109287816343    0.71378599789829    0.15270206025967
C           1.76592315721315    1.45964590477844    1.11069083970343
C           3.14478643321390    1.38600660998754    1.19864255338845
C           3.88377992520750    0.57757605347687    0.33489315296425
H           1.27992280902917   -0.68061523293490   -1.46469613729373
H           1.23215536597023    2.09426449918448    1.80834429149703
H           3.66265882996327    1.97604118806913    1.94681226674832
O           8.90434538810010    1.91256566903965   -2.18202430063731
S           8.82430040780730    0.56649547437224   -1.66061663055039
O           8.74044162421602   -0.53661316658701   -2.58857212820958
C           7.54760863791828    0.46520449607347   -0.42706326339282
C           6.19338514115266    0.56841048733934   -0.63479991340380
C           5.34754083664451    0.48598923394496    0.47953108436393
C           5.90335223415222    0.31141411932348    1.75073565960150
C           7.27280754341160    0.19635407120381    1.93788864573809
C           8.11667846051159    0.27064990919085    0.83404354679806
C           9.57555789058603    0.15856224628001    0.80578604877176
C          10.44181543761719   -0.06813853355210    1.87111846722093
C          11.80346850907411   -0.17069728880226    1.62740047487083
C          12.33169524153779   -0.05373970864676    0.33744832619503
C          11.46230096760134    0.18348308313315   -0.73675548451071
C          10.11773952771827    0.28389611293166   -0.47513898885608
H           5.79365965432583    0.72272192336166   -1.62887541659967
H           5.24480258106267    0.23787063778839    2.60921189892601
H           7.67372803986244    0.04667209586110    2.93357051230861
H          10.06253681133300   -0.17378529895326    2.88088682364391
H          12.47072623046439   -0.37094983788053    2.45832623121203
H          11.83850886520864    0.30020996846428   -1.74538861154158
N          17.58474910551373    1.28765920481848    2.58295800185331
C          16.93419983280286    0.76994994053775    1.78659995639857
C          16.07298925325922    0.16835433079154    0.82473744492478
C          14.69787153131180    0.31469069246803    1.02206489489543
C          13.77947379367948   -0.19405913927046    0.10697159027781
C          14.26376690598054   -0.84315912965561   -1.03401679043693
C          15.62232574251476   -0.99205966371462   -1.23284163883148
C          16.55476498412362   -0.50779134579881   -0.31067648787678
H          14.35272506896674    0.85830368638977    1.89416049150476
H          13.56961781262394   -1.25328531710171   -1.75848582243081
H          15.98882480426977   -1.50136275876575   -2.11742682083110
C          17.98195516584640   -0.73079124022899   -0.58938679363257
C          18.96217465642392   -0.86815203660437    0.39455345325345
N          20.23415368534784   -1.08913872712431    0.09093461330853
C          20.54596631270893   -1.18004904956824   -1.19784326782293
C          19.57470929484682   -1.07635864128862   -2.18285697824499
N          18.30178534536953   -0.85818231677220   -1.88377263815777
H          18.71642461520469   -0.82022120288754    1.44924566754106
H          19.82201054337009   -1.17028763703718   -3.23558265224798
H         -21.08945118665574   -0.74210830555013   -0.57172556109754
H          21.58906933415863   -1.34888625578434   -1.44384067186697
