    72
       -116.53162586
C           9.83785121662654   -1.11220169318654    1.62021772919208
C           9.21794613577124   -1.70326093352116    2.71018434834009
C           7.83845614439217   -1.66943665560411    2.84270406825503
C           7.04650904407326   -1.03590505546814    1.87858751855429
C           5.62024404530068   -1.00136773358824    1.96693247704548
C           4.87007202620937   -0.37794556528802    1.02497908811433
C           5.46966040224103    0.28288560992091   -0.09460225301512
C           4.71374562415740    0.94221546166801   -1.08321060591738
C           5.35608965673346    1.50005495456257   -2.18871787084828
C           6.73134474858563    1.45008161241384   -2.32254766197100
C           7.51889781437202    0.82700853879295   -1.34814449751917
C           8.94379822720681    0.76744658238572   -1.45114821487903
C           9.69229669539649    0.15091985187324   -0.50360950218811
C           9.08344657011094   -0.46624241505359    0.63412881611642
C           7.66984831274865   -0.42147774223442    0.76130787288621
C           6.88402238467477    0.23061088032591   -0.22700230576313
H           9.81797376463714   -2.19940452537763    3.46532682504345
H           7.36275082430761   -2.13781289226319    3.69764653248300
H           5.14475743064618   -1.49752696992695    2.80669561770557
H           3.78859661779173   -0.38700014978586    1.10369529561723
H           4.76137568948480    2.00202829974831   -2.94463627811472
H           7.20778505488413    1.90196137494592   -3.18581542407306
H           9.41422114270239    1.22996582377286   -2.31267534680674
H          10.77298471763003    0.11108479644366   -0.59240601401518
N          -0.42575091587649   -0.07637561816906   -3.89390584581278
C           0.23486887086606    0.30342775506557   -3.03174880397179
C           1.04946365047520    0.76861830679132   -1.95944210799272
C           2.43627331802399    0.63405648250968   -2.03034471874858
C           3.24394536884681    1.07013297684467   -0.98337817020371
C           2.64384072290305    1.66110528255570    0.13125744187729
C           1.26659475415693    1.80611109267858    0.20040928209204
C           0.45231838770927    1.36037320953545   -0.83499073227453
H           2.88273208023224    0.17120585543992   -2.90297040525657
H           3.26323379133686    2.03216416278394    0.94005057429803
H           0.81573175864117    2.27300767480943    1.06900555096662
C          -1.02319577399112    1.52973735059431   -0.78671584399267
C          -1.58292926797788    2.71067526538842   -1.26540822609720
C          -2.95451976480724    2.89557034007746   -1.27460072045715
C          -3.81144904033076    1.89306275188172   -0.80810113301562
C          -5.23152299143942    2.05032791855740   -0.80275170204303
C          -6.04799587045229    1.06273509156016   -0.35992729937966
C          -5.52614140546912   -0.18097160493298    0.11922959933109
C          -6.35350124796335   -1.22408827007507    0.57936301554172
C          -5.78057039770288   -2.37893984944494    1.11151268061868
C          -4.40859469440205   -2.54271396493556    1.16191449862421
C          -3.55459488617893   -1.54428224905143    0.68047707218833
C          -2.13313405378903   -1.69331764739711    0.69556706484330
C          -1.31847053509392   -0.71730837022899    0.22533331023728
C          -1.84966277328120    0.50550526036599   -0.29445557566569
C          -3.25878232326225    0.68427855696339   -0.31126033381185
C          -4.11476292865042   -0.34668792611382    0.16409608270032
H          -0.93000251107254    3.49109417427553   -1.64074203918488
H          -3.37304905088265    3.82192366255365   -1.65272009336902
H          -5.64580769837441    2.98736263483013   -1.15988540253518
H          -7.12163489570498    1.21377129259425   -0.35020850545061
H          -6.42911984727591   -3.17206833523960    1.46833558513064
H          -3.98723098314275   -3.45597223150164    1.56787647660605
H          -1.71837002534874   -2.61398045334844    1.09262741701662
H          -0.24138340502283   -0.84501376339128    0.24039346409057
N         -11.01219980404134   -0.43389223568713   -3.04936243483602
C         -10.49658929821703   -0.62586051390481   -2.03877386579812
C          -9.85732128290696   -0.86093584440913   -0.78741145820220
C          -8.46378996999294   -0.90960159430390   -0.71705171627396
C          -7.82804647551464   -1.14044321104792    0.50135469020756
C          -8.60406684936633   -1.33579934619919    1.64560767294186
C          -9.98887382401994   -1.28387294756606    1.57673203565327
C         -10.62209053213972   -1.04542272451526    0.36795396603480
H          -7.87814233098582   -0.78898298334811   -1.62097028262760
H          -8.11627911518161   -1.51382030423461    2.59749292603882
H         -10.57849720174052   -1.43016989490070    2.47479928788270
H          10.91780644718049   -1.14794839916480    1.52480913369695
H         -11.70330946945559   -1.00475827110112    0.31043837413986
