   130
       -217.29471857
C         -20.80046580342808    0.65729036411386    1.59995495633012
C         -20.25734647111142    1.93261481247230    1.58277261353048
N         -18.96152695880325    2.13885289577299    1.38174982455984
C         -18.19117785799449    1.06253692989273    1.18669027499070
C         -18.73968441971205   -0.22047604925672    1.25874165622096
N         -20.03535537067070   -0.42175915517760    1.45560827939653
H         -20.87562140412462    2.81217682635471    1.73343595306001
H         -18.11249708893370   -1.10321039258853    1.18624384031318
C         -16.75128343999906    1.30560501733618    0.99928154465004
C         -16.15277444443732    2.26191386761805    1.82300359895366
C         -14.79250674772230    2.49342760201228    1.78402420799483
C         -13.97343499024085    1.76882547437015    0.90927510764273
C         -12.55974229177977    1.96558266706607    0.86287951450833
C         -11.77739736871488    1.25817041671818    0.01086285237394
C         -12.33597120904790    0.28869016001181   -0.88119038324442
C         -11.54084502017145   -0.46153022546660   -1.77020234334975
C         -12.14922767564476   -1.32949195629014   -2.67680376440176
C         -13.52098999681219   -1.49949171180889   -2.69788352060383
C         -14.33824001364659   -0.80064942603540   -1.80234281137298
C         -15.75816963478738   -0.94811452988039   -1.80130444489809
C         -16.53570518773996   -0.27686476829158   -0.91566566374771
C         -15.96996602249930    0.60694074988125    0.05661347674660
C         -14.56452588692505    0.82695722133005    0.02709717651621
C         -13.74552474443335    0.10532041592730   -0.88490152780415
H         -16.78108841962510    2.81300248374501    2.51444272675367
H         -14.34847817583873    3.23276409013041    2.44165199435538
H         -12.12188856464935    2.70146602083956    1.52919632272697
H         -10.70679070905560    1.42732427484844   -0.01384268011914
H         -11.52610523605889   -1.89314057131465   -3.36287436593009
H         -13.97120096555344   -2.18518069160827   -3.40747397072404
H         -16.20684455216854   -1.60791635554815   -2.53647698091156
H         -17.61352047293795   -0.38429350341116   -0.95811311398514
C         -10.06501669850952   -0.35098935311312   -1.79117851260881
C          -9.44710934563166    0.08842197373913   -2.96158668743731
C          -8.07110957874623    0.18321527396339   -3.05406454451230
C          -7.25865921127639   -0.16973645577508   -1.97059374494974
C          -5.83416464602712   -0.12816488901785   -2.04950069747704
C          -5.05832780190691   -0.48173313934418   -0.99462769370037
C          -5.62900413619271   -0.88988432110301    0.25181739616772
C          -4.84923536372159   -1.25632774779780    1.36876285539015
C          -5.47373518582026   -1.75630252336562    2.51562444194336
C          -6.84608221021255   -1.86158944959866    2.60085340674083
C          -7.65506937072694   -1.47833140236746    1.52378972392027
C          -9.07655598935013   -1.59824735568988    1.57419031728659
C          -9.85134892370601   -1.24537054324692    0.51912349816164
C          -9.27763895602483   -0.72512423909059   -0.68363739674072
C          -7.86192076724481   -0.62398433246679   -0.76934050063087
C          -7.04681130470212   -0.99149789520239    0.33747621642879
H         -10.06438022181200    0.37064384744695   -3.80764922731934
H          -7.61229466088651    0.52980172314884   -3.97360093271765
H          -5.38012826896516    0.17742100361760   -2.98633053553261
H          -3.97981506975398   -0.48199004211955   -1.10118465284203
H          -4.85078650654842   -2.05705105348730    3.35110434176792
H          -7.30697811820280   -2.24621810508933    3.50394891485242
H          -9.52639234567586   -1.99304138853319    2.47903473697431
H         -10.92760578528221   -1.36299719019825    0.57204535563450
C          -3.38169996649749   -1.18088817774570    1.39563357395710
C          -2.63081085523951   -0.10659798299362    0.90749568259587
N          -1.30908610391245   -0.11694228868381    0.90321719803769
C          -0.68788157649785   -1.18651070221076    1.41865664123993
C          -1.43884042388020   -2.20196793243115    2.01704131443219
N          -2.76038694665407   -2.20307773779471    1.99955998410374
H          -3.11226612158976    0.79108240660814    0.53287319278466
H          -0.96510394290667   -3.03540170019006    2.52635375703534
C           0.77630631197395   -1.21919670046244    1.33168189625754
C           1.52290671337678   -2.37788098256898    1.55994332248046
N           2.83911454428290   -2.40499186671179    1.43855047526014
C           3.45691361342332   -1.27421675451170    1.07163166113098
C           2.71501821319704   -0.10256370464204    0.89295634867169
N           1.39875358695756   -0.07619884869876    1.01237565230588
H           1.04825371404698   -3.31446552482511    1.83524722131307
H           3.20336418910749    0.84317948964408    0.68051423206153
C           4.92180192281557   -1.35070899038221    0.96940586508306
C           5.58147707882568   -2.08472106770348    1.95971223755152
C           6.95663521283814   -2.18833367449100    1.98323949621629
C           7.73171508105333   -1.56448497036950    0.99758717648311
C           9.15610241968868   -1.66038534936584    0.99072991578307
C           9.89727857784463   -1.06748546697581    0.02274119414813
C           9.28322614031925   -0.31650369634751   -1.02896265717546
C          10.03560974360666    0.30671186687534   -2.04479473989425
C           9.38101060328575    0.96504844968536   -3.08498246970536
C           8.00108983558132    1.04297077317977   -3.12798864097229
C           7.22278039833503    0.45432749887199   -2.12479469415143
C           5.79598756539780    0.49041887933190   -2.15529395487091
C           5.05421861733857   -0.08668614494693   -1.17720663590423
C           5.66547779825951   -0.74487687125580   -0.06403118992798
C           7.08551037165598   -0.84355953748101   -0.04025144928553
C           7.86458044633837   -0.23258236371243   -1.06183732167821
H           4.98462961796785   -2.56767384229208    2.72598899332359
H           7.44636335079091   -2.75436570176047    2.76800905057151
H           9.63581824774036   -2.23066475912599    1.77924895119098
H          10.97697072182973   -1.16477816634424    0.02807198519232
H           9.97181063899794    1.43498939943754   -3.86388714834788
H           7.51295921560633    1.56420533833517   -3.94440499932061
H           5.31245792042110    0.98126137461757   -2.99342226383555
H           3.97282700282666   -0.07634151235404   -1.24892247476375
C          11.51485780692008    0.24625656382566   -2.05792684213651
C          12.14564916234326   -0.41163175285122   -3.11301778764231
C          13.52251319178250   -0.52878643994372   -3.16312657483148
C          14.32161232391215    0.02042238310736   -2.15388439319495
C          15.74278862013288   -0.11196002863935   -2.15633355003254
C          16.50474172882139    0.43357628037473   -1.17619505535164
C          15.92409809580031    1.17769017999136   -0.10183863719645
C          16.69346889258551    1.75879137954536    0.93073414706699
C          16.04937129071655    2.43542030389777    1.97029933613081
C          14.67560593985958    2.56791430368112    2.00524502100546
C          13.88204871689872    2.01217985261555    0.99542968035592
C          12.46093064850266    2.15054814921203    0.99543455177973
C          11.70006860084205    1.59530081326075    0.02055728623612
C          12.28982252388525    0.84325299679387   -1.04391716814780
C          13.70566128312930    0.72412916911288   -1.08708131539033
C          14.50681717303778    1.30337739337987   -0.06366115578315
H          11.53837834439319   -0.85807679842440   -3.89310954772326
H          13.99100331327466   -1.05826309109123   -3.98561561585796
H          16.20551791869964   -0.66870197953082   -2.96454326839607
H          17.58054237816604    0.31209784739089   -1.20210590864303
H          16.64575096847694    2.89484504516581    2.75135482263338
H          14.20454537992362    3.11264863757870    2.81605552778957
H          12.00006353859219    2.71722711276260    1.79760727031830
H          10.62313620142804    1.71950275109726    0.03230069818263
C          18.16398273812116    1.68700495270418    0.95788599402752
C          18.85497831133010    1.47532396740233    2.15493157252671
N          20.17843520656455    1.44878181386752    2.21283717125833
C          20.83719326818860    1.62635458362199    1.06993522231687
C          20.16353574855050    1.81273748770459   -0.12618586265150
N          18.83742585950139    1.84781878700128   -0.18638905710630
H          18.32131651339923    1.30456402022044    3.08473206832180
H          20.69891997971326    1.94474218974070   -1.06135927479709
H         -21.86281728921218    0.49283950172831    1.74758052840484
H          21.92110975524474    1.61406381743948    1.11675730780668
