   124
       -238.45981427
O          19.69709021882037   -4.12194775228635    1.17146804223335
S          19.92380268362270   -3.46720288694855   -0.09702551154817
O          19.61332219792863   -4.17985829057557   -1.31481638140975
C          21.56555302890036   -2.79470557218940   -0.16861040188185
C          22.74694454174663   -3.50047936404295   -0.19445493665433
C          23.93324211303563   -2.77301069644679   -0.25179141589779
C          23.90812027832409   -1.38433021263846   -0.28205492708542
C          22.70637634793247   -0.68637888575306   -0.25496538046902
C          21.51308884102211   -1.39929454915045   -0.19697351564318
C          20.14795101675384   -0.86763718404693   -0.15490528250829
C          19.74442580965122    0.46396487564154   -0.15265926232698
C          18.39113694316823    0.76164366774135   -0.08653736909516
C          17.41946727521636   -0.24256960854707   -0.02968621170522
C          17.82074447759436   -1.58562247883051   -0.04594198396020
C          19.16586340900872   -1.85926057277681   -0.10312122824441
H          22.75180319327828   -4.58286333886714   -0.17024050421785
H          24.84107803338109   -0.83380258422733   -0.32727340746948
H          22.70333468885961    0.39715117971450   -0.27894046835013
H          20.47325635958370    1.26471054375681   -0.19944530593778
H          18.08040988924268    1.80052243886572   -0.09730336373574
H          17.09401084042354   -2.38642341578786    0.01108285225547
O          12.13615158586645   -2.37247754063300   -0.87492288785549
S          12.31863941673028   -1.01414627848401   -1.32993332801567
O          12.36628933936363   -0.75340082632172   -2.75057499453252
C          13.71260441592885   -0.26344984452326   -0.52087760335912
C          15.03127777721550   -0.62682476140740   -0.64893334851601
C          15.99138730432323    0.10552691378311    0.06363948263585
C          15.57794505147835    1.16782602273820    0.87413082382800
C          14.24054965105567    1.51324953084358    0.99751792873288
C          13.28427050078082    0.78980088994947    0.29106336942730
C          11.83413506242384    0.98055733311094    0.28240419055744
C          11.08831036071732    1.92069187632581    0.98729996109942
C           9.70840776637633    1.93670677076153    0.84877208314885
C           9.04334114169181    1.02923379990950    0.01658959846691
C           9.79371264455142    0.07356604389038   -0.68926443908964
C          11.15707096357106    0.07633002571419   -0.54142503570716
H          15.32102434054612   -1.44367892469727   -1.29811618193855
H          16.31830474732162    1.72222288195912    1.44008872174867
H          13.95034712648343    2.33538416757343    1.64123521001496
H          11.57420730695085    2.63348420511978    1.64344098262687
H           9.14054897069090    2.66486762912181    1.41653740709468
H           9.29348482374290   -0.64093763007808   -1.33172449399387
C           7.58494917537489    1.03265830322918   -0.13815869670308
C           6.76454226341330    2.09928350733163    0.23911705611835
N           5.45102255013334    2.05289732535500    0.10935119746772
C           4.90344400619940    0.94660898459385   -0.41208714703172
C           5.72853311270892   -0.09946447153653   -0.83522414999830
N           7.04183196382415   -0.05747328144043   -0.69615067589907
H           7.17549199729253    3.01709785434310    0.64730588040354
H           5.32371192540971   -0.99168204796886   -1.30178924572513
N           0.19388322873345    4.40391637185162    0.19541628321590
C           0.69753472175619    3.39980277063226   -0.05519678045963
C           1.35079362237265    2.16754045516136   -0.34868785511126
C           2.74013644954692    2.12044280969603   -0.27143452427301
C           3.43911076149870    0.93552746072856   -0.51180578369630
C           2.70708323499620   -0.21535597181334   -0.82235353676315
C           1.32567590531890   -0.17568798552385   -0.89346017710213
C           0.62028360371914    1.00688415466088   -0.66722523771543
H           3.29208638370760    3.01812636640681   -0.01603659180349
H           3.21249923103361   -1.15707248672109   -1.00117998087481
H           0.78119152791204   -1.07841321992609   -1.14698823182831
O          -4.04133772254719   -1.18766215294477    1.85576554381064
S          -4.09809831897854   -1.16665506555819    0.41201847357123
O          -3.99122066175752   -2.41733015045320   -0.30608529582702
C          -2.95547303082855    0.02352342796410   -0.24700617934762
C          -1.58514994982587   -0.02375699604014   -0.16656717397235
C          -0.85066093876420    1.02018965713895   -0.74690575862946
C          -1.53151633430532    2.05437000851054   -1.39649720105721
C          -2.91648585148407    2.08268286567513   -1.46849733167256
C          -3.65025430469370    1.05636435278290   -0.88104490884073
C          -5.10461939654021    0.89976617331946   -0.82500788848891
C          -6.08262167501745    1.74365253447480   -1.34312037465089
C          -7.41992263492934    1.41639444612985   -1.17484917228313
C          -7.81557258261628    0.25780125257039   -0.49723040376255
C          -6.83263518565431   -0.59536084960493    0.02504479482926
C          -5.51420977821439   -0.25329120255057   -0.15111962358897
H          -1.08777992218234   -0.83292753891240    0.35351465659521
H          -0.96493716013789    2.84889157065411   -1.86774185724109
H          -3.41535638091810    2.89850994778785   -1.97821460270886
H          -5.80897955675210    2.64698493515439   -1.87558167499450
H          -8.17565020558001    2.06857306373990   -1.59783750748824
H          -7.10144943983489   -1.48982934895803    0.57295199201740
O         -13.05270009105712    2.57284128404442   -0.87086827029287
S         -12.85942866391553    1.72900255601581    0.28686832672049
O         -12.75914970385011    2.34692270545454    1.58934480801434
C         -11.49951365341487    0.61756732850641    0.01734795845777
C         -10.17703276815091    0.96064550210662   -0.11981169573038
C          -9.24325435399831   -0.06341297326467   -0.33531691137251
C          -9.68939503096620   -1.38808607285099   -0.39846543123872
C         -11.03035252788755   -1.71423186028175   -0.25830068395925
C         -11.96016742859367   -0.69977893436448   -0.04785195096211
C         -13.40893576353548   -0.81745281874397    0.11764208572822
C         -14.18657629081442   -1.97157218455814    0.10219260709590
C         -15.55946536822854   -1.87162619741134    0.27409949721421
C         -16.19019740338437   -0.63644252237972    0.46492731518124
C         -15.40537930888525    0.53004920887694    0.47946047078352
C         -14.05067135727572    0.41040014733008    0.30770728600342
H          -9.86506945826570    1.99473840428872   -0.04292837347795
H          -8.97410206434461   -2.18166865938089   -0.58294947520929
H         -11.34498268450431   -2.74958206524738   -0.31811689335046
H         -13.72997428420794   -2.94354816779205   -0.04439017543490
H         -16.14665393670103   -2.78232971086442    0.25256372512380
H         -15.87398963456666    1.49599674246242    0.62388629500977
C         -17.64016579497230   -0.50592600166551    0.64737700007451
C         -18.52310744732205   -1.58446796106867    0.74923238901092
N         -19.82325090710885   -1.41526137296133    0.91112229086496
C         -20.29983277088003   -0.16495105572717    0.98203102547003
C         -19.41532550887779    0.91368292098451    0.88579921140709
N         -18.11589516210749    0.74505670541385    0.72179839804197
H         -18.17731442622682   -2.61214160656591    0.70347214795182
H         -19.75992673447121    1.94127979517080    0.93834946967522
N         -25.33944239027478   -3.25800065048064    1.36529385201474
C         -24.70175660686623   -2.30060329531185    1.35241721035878
C         -23.91774310810035   -1.11034688618451    1.33644668246480
C         -22.53623858075014   -1.18784157205288    1.17624931758388
C         -21.75271291348304   -0.03070031945148    1.15630438274285
C         -22.38466565962343    1.20869239828381    1.30300108648422
C         -23.76020047571899    1.28574498143410    1.46290887410951
C         -24.53396210500680    0.13684395847739    1.48039239697611
H         -22.05820826046504   -2.15444007832555    1.06478004547762
H         -21.80673456907079    2.12529537355677    1.29623740204088
H         -24.23277118300051    2.25500381993496    1.57544830844026
H          24.88204291434959   -3.29606803115487   -0.27279976617883
H         -25.60850365216173    0.19695173853605    1.60474596948725
