   136
       -238.90944649
O         -20.50177931034846   -2.44317429474184    1.40214303651910
S         -20.44524036300478   -1.64823819310044    0.19604169081216
O         -20.35538944784317   -2.32453033448929   -1.07838751975469
C         -21.75206630521223   -0.44667292766285    0.17657098693280
C         -23.10249229497002   -0.69741191861120    0.08621657781410
C         -23.96436746656262    0.39656200378326    0.08800588379567
C         -23.46254948458531    1.68897062381198    0.17812456717153
C         -22.09570204928268    1.92509926400771    0.26824389158017
C         -21.22195433527700    0.84233445428659    0.26789484352748
C         -19.75871457412875    0.86470931309692    0.35475878245155
C         -18.91845708539315    1.96943224091679    0.45402265849174
C         -17.54650510279634    1.77449684957505    0.52630645325175
C         -16.98374925920087    0.49463662434031    0.50567724065367
C         -17.82685255983240   -0.62076079975108    0.40613347671650
C         -19.18157438556207   -0.40671370975173    0.33179711551706
H         -23.47914722701608   -1.71004593642083    0.01648890509577
H         -24.14779266866834    2.52927552071067    0.17834521328301
H         -21.72041106825307    2.93943832444075    0.33796687038433
H         -19.32483504444964    2.97392962959696    0.47824766883245
H         -16.89727540056965    2.63790944545112    0.62086381032312
H         -17.42219045391767   -1.62445329434268    0.36785119110658
N         -11.81384266761986    2.61960364324283   -1.39266892942768
C         -12.45478397382677    1.89633762343165   -0.76728650029190
C         -13.27969872593761    1.00858823803985   -0.01774563466359
C         -14.66306742248858    1.17997611718692   -0.08323016802344
C         -15.52377911357126    0.31291999947940    0.58578618074087
C         -14.97278502200242   -0.73694058017978    1.32670660394134
C         -13.60170668336718   -0.90882605053134    1.39700243646834
C         -12.72945402716515   -0.04576412746215    0.73329445877751
H         -15.06236762317424    1.98554055056021   -0.68877023440812
H         -15.62270580185277   -1.41312383344521    1.87019150817106
H         -13.19675397236897   -1.71821556520886    1.99415317847720
N          -8.47379750652528   -4.14574629855778    0.39818945284660
C          -8.86635945206498   -3.07395752190468    0.54451727389045
C          -9.36869875758507   -1.75182170781527    0.71835667927521
C         -10.74681626598828   -1.53859171336242    0.67917816129794
C         -11.27208578388501   -0.25484548777236    0.80830630269614
C         -10.39375595507785    0.81427206792176    1.00578077141159
C          -9.02591612326995    0.60673544682517    1.04314579916575
C          -8.48738014051110   -0.67010550192081    0.88739489869510
H         -11.40689836631911   -2.38282931782249    0.51587001146090
H         -10.78505970593707    1.81508792119507    1.14437868343788
H          -8.36069981498005    1.44626523488568    1.21039355414184
C          -7.02665774648252   -0.89065319951381    0.91322021921137
C          -6.48928734150059   -1.75387486834700    1.86750509248747
C          -5.12812191735063   -1.98250853535089    1.93925308849631
C          -4.25260394300736   -1.35703955012349    1.04456128337582
C          -2.84477599585362   -1.59293621821737    1.07647356731443
C          -2.00835128142828   -0.98848873672007    0.19680974717971
C          -2.49732121315279   -0.08040861568038   -0.79470213850355
C          -1.65158026461322    0.55502047591837   -1.72595593026175
C          -2.19883052819824    1.37101395783367   -2.71729960148217
C          -3.56026280288431    1.59296547935738   -2.79358725205400
C          -4.43017070057041    0.99323277505162   -1.87632075856082
C          -5.84281675010167    1.19007406744314   -1.93996275502700
C          -6.67728889124418    0.59414870179964   -1.05323325423167
C          -6.17835867819721   -0.24991569320437   -0.01144662424615
C          -4.77735607257978   -0.48317619983792    0.05714727357828
C          -3.89975715496452    0.14609479506370   -0.86851661085260
H          -7.15407830195205   -2.24098809857082    2.57223392767505
H          -4.73190332113991   -2.65368221547473    2.69312933336399
H          -2.45606031130795   -2.28155153851634    1.81906891271068
H          -0.94670144081094   -1.20509385533184    0.22702234257964
H          -1.53564447665057    1.85566896693562   -3.42582863598825
H          -3.96130354546723    2.23738803550631   -3.56810220695532
H          -6.23800789204283    1.82403091215991   -2.72664374501350
H          -7.74794831830433    0.74228686139375   -1.13611140481692
O           2.91875220939228   -0.20131033769756    1.75217538281241
S           3.08469150678545    0.78707233715656    0.70987378900091
O           3.11112240075040    2.18501180368466    1.07677269952269
C           1.92465663137953    0.50316264585555   -0.60560667960128
C           0.55966652142903    0.65301529327085   -0.54583085198690
C          -0.18555170794250    0.38248658859996   -1.70190959278239
C           0.47868394718018   -0.01533802209547   -2.86601831322876
C           1.85728388344835   -0.16271140752163   -2.90603238289093
C           2.60072191678850    0.09915684673269   -1.75930484006192
C           4.05302886050900    0.02960172975307   -1.59116680157255
C           5.01068922971752   -0.32109167551989   -2.53770007614436
C           6.35178604559662   -0.29716773316131   -2.18477935587263
C           6.76950252335517    0.07241400617030   -0.90234697687270
C           5.80716585841296    0.41787341721338    0.05677669580136
C           4.48360870376857    0.38501660327055   -0.31074495752722
H           0.07612227802864    0.99706299383436    0.35975431795610
H          -0.10308650974082   -0.22716802792931   -3.75631769697809
H           2.34439379060053   -0.47664744097143   -3.82188621623612
H           4.71946733073171   -0.60150965073048   -3.54322311852976
H           7.09592361559868   -0.54685329579522   -2.93295240582569
H           6.09547895207509    0.69054443673803    1.06431544168514
N          10.93211663548501    3.27638197088903    1.79919050083233
C          10.56875824439645    2.35823984363995    1.20800526654265
C          10.09097087564680    1.24532331243824    0.45686271942128
C           8.72208251444936    1.15632152989558    0.19987493019391
C           8.20685145542337    0.12523520108584   -0.58240532391360
C           9.08816276915462   -0.83558364136954   -1.08770469846689
C          10.44529810836243   -0.75254938392136   -0.83338851327545
C          10.97580337990792    0.28671976383894   -0.06837255933852
H           8.06414763010081    1.92399212481556    0.59054857907894
H           8.70548723802110   -1.66415255130645   -1.67291473606499
H          11.10846552722273   -1.51577625735015   -1.22533074829994
N          15.27234460237392    1.22609757601844    3.93366605664149
C          14.86450907710117    1.02633528792886    2.87638723452606
C          14.34947323239642    0.76033685879072    1.57440449443760
C          12.96869570681361    0.66631729478383    1.39700375030302
C          12.43195794354196    0.37643703945295    0.14530099045229
C          13.30330955174365    0.17051045783206   -0.92878529166788
C          14.67300712499944    0.26622362213414   -0.75715693621975
C          15.22253506419969    0.56204594229508    0.49043196210970
H          12.31708438196278    0.80681337363022    2.25107497275816
H          12.90139919112738   -0.03650844515079   -1.91441216095372
H          15.33024674351498    0.13655562782694   -1.60972157799067
C          16.68224696127100    0.71647110279215    0.65124403541657
C          17.17613538665939    1.92363791043420    1.14705611083321
C          18.53483775629659    2.15384657158756    1.25328637056990
C          19.45611299674488    1.17362141333647    0.86800351954325
C          20.86726923476781    1.38971049256275    0.94462306383498
C          21.74721988397494    0.42778933992115    0.57193583394222
C          21.29557644562813   -0.84280773604519    0.09528549610571
C          22.18738135816890   -1.85090151045215   -0.28824360742123
C          21.71859321083516   -3.07490482048400   -0.73981494936283
C          20.35722013948075   -3.32437148575457   -0.81997102059940
C          19.43115800493896   -2.34248225535583   -0.45057141018132
C          18.02044751116970   -2.56583639210066   -0.50660575690306
C          17.13847955351839   -1.59760747234887   -0.15477283203621
C          17.57735367027872   -0.30748203155019    0.28377105886033
C          18.97529268776448   -0.07303182922723    0.38852189134593
C          19.89883197348474   -1.08459202184591    0.01108766203856
H          16.47698711918471    2.70231357690390    1.43108371261368
H          18.89312197637806    3.10557294041189    1.62994584195084
H          21.21908100684612    2.34910070141137    1.30936360746444
H          22.81627410028299    0.60332145120312    0.63190035386634
H          22.42373806597995   -3.84561314604085   -1.03150401444930
H          20.00149016801884   -4.28708907335862   -1.17111429146983
H          17.66632334760359   -3.53809138967731   -0.83352570689692
H          16.07342833703166   -1.79940441015070   -0.18782623605518
H         -25.03386017114784    0.23655503175731    0.01846936575039
H          23.25479197130629   -1.66712234277097   -0.22870677311690
