   182
       -320.19935097
O          27.63477224863095    2.44924674355009    1.09421831496965
S          27.39194867893470    1.29841523235862    0.25282028299388
O          27.20622276892479    1.50291263340188   -1.16619021591145
C          28.60560844277366    0.03808549340042    0.55401308212581
C          29.94918875667576    0.09886183439024    0.26164828469843
C          30.73127684515244   -1.00822305743091    0.58170904032180
C          30.15976237017538   -2.12651816064813    1.17537268328665
C          28.80072965373773   -2.17199820277173    1.46413853052572
C          28.00612318196133   -1.07413222925177    1.14982814178272
C          26.56375049816291   -0.91580572762705    1.35877074438628
C          25.66758724750089   -1.82312385642311    1.91570003359828
C          24.32603754124929   -1.48202441207152    2.01062472585716
C          23.84716686471907   -0.24651483120999    1.56215593513996
C          24.74853686521070    0.67239124297375    1.00623824678425
C          26.07174607347961    0.31525140841919    0.92004936824826
H          30.38080617226173    0.97689872142047   -0.20187201110304
H          30.78315423735581   -2.97983294872775    1.41766974957672
H          28.37011445259748   -3.05232294016263    1.92658816308928
H          26.00695350696272   -2.78798217672676    2.27401907499157
H          23.63603374703685   -2.18751622752604    2.45971898313037
H          24.41000159819388    1.62994433578356    0.63087874937707
O          18.62655708911665   -2.57607909771821    2.30084282568494
S          18.72253128420862   -1.59961944479562    1.23857763903583
O          18.68039149755422   -2.05901102508392   -0.13181570463885
C          20.12298767303916   -0.53875270605203    1.49926020262616
C          21.44611360050769   -0.89941674608094    1.42847574254930
C          22.41622531420578    0.08724762181872    1.65496007261763
C          22.00366916366360    1.39031955810212    1.95316058596233
C          20.66137365576660    1.73378947523939    2.02237503117480
C          19.69539359697946    0.75972167322613    1.78695164562541
C          18.23854316950509    0.90709473421547    1.78287337977379
C          17.48632071968007    2.05390563823885    2.01940156149094
C          16.10181448206136    1.98590027471280    1.94423130372860
C          15.44165401049086    0.79575224589433    1.62817177891419
C          16.19429908922641   -0.36702672237257    1.40915734641789
C          17.56225174972659   -0.28031213669898    1.49091695816303
H          21.72849125492341   -1.91430879473604    1.17808018253903
H          22.75067766308986    2.15081460260286    2.15118663870269
H          20.37481649773443    2.75239906561068    2.25618133320252
H          17.97120412284010    2.99424569486209    2.25409848512091
H          15.51676874569469    2.88296846261561    2.11398103415896
H          15.70763067333369   -1.31122979313151    1.19991892103613
C          13.96840978617339    0.74342636633744    1.56001642653019
C          13.22797977980529    1.19625507754564    2.65213508539052
C          11.85012233962131    1.08731301776145    2.67787084152787
C          11.16018718968193    0.51908483348107    1.60093624375899
C           9.74291635397891    0.34113150101466    1.61999266212766
C           9.08816642979473   -0.20881327790327    0.56786762610411
C           9.78525847347739   -0.61407874781213   -0.61458583283537
C           9.12408071062928   -1.18134915673444   -1.72149902698607
C           9.86281142840121   -1.60687732525977   -2.82523017134188
C          11.23600784404482   -1.45414315728436   -2.87202048704032
C          11.92505211062769   -0.88307305854967   -1.79650873242523
C          13.34049540346555   -0.69801343176860   -1.81856283786868
C          13.99850023797641   -0.17248083306467   -0.75589213370640
C          13.30495142447768    0.21398873865085    0.43435396487151
C          11.88874563566940    0.09247086766780    0.45983797992618
C          11.19844079518234   -0.46622062406250   -0.65093848058254
H          13.75031369690399    1.60900198090855    3.50855062629488
H          11.29690544387438    1.42815691557404    3.54603701478366
H           9.19852906004454    0.64888363768601    2.50654333190488
H           8.01437995789066   -0.35230669468774    0.60972836513499
H           9.34146742008779   -2.04803268124668   -3.66794704357453
H          11.78767378083951   -1.77872701783342   -3.74751202162077
H          13.88321808815449   -0.98593425743621   -2.71262417532497
H          15.07112734149741   -0.02429919813250   -0.80581057886352
C           7.65747594789262   -1.38531294133566   -1.74101586378899
C           7.17557935214885   -2.69239837347114   -1.80335056531319
C           5.81884235669958   -2.95673529119472   -1.82931175106956
C           4.89000873925629   -1.91049681207936   -1.81262196098004
C           3.48233505355121   -2.14909963636118   -1.82054149159398
C           2.59433915081454   -1.12447095447517   -1.83248641721226
C           3.02785817723002    0.23911011088727   -1.84372956892119
C           2.12491314521808    1.32127577268570   -1.87136376821209
C           2.60529845433152    2.62768512036827   -1.77877430445476
C           3.96119215744944    2.88913065235199   -1.71418625689993
C           4.89054296233995    1.84282554000004   -1.73390330314006
C           6.29896827790712    2.08152651081485   -1.71797523548029
C           7.18706656634477    1.05716080959673   -1.72977693432006
C           6.75203823959372   -0.30622627362301   -1.73778026622144
C           5.35595616758060   -0.57058539650269   -1.77626149510272
C           4.42352877215687    0.50332099466220   -1.78216881382057
H           7.88406017053482   -3.51363820817668   -1.81135759579484
H           5.46733999201018   -3.98214836532918   -1.86195074097729
H           3.13482639692521   -3.17687053694036   -1.81092292252937
H           1.53042857792157   -1.33242580264778   -1.81640969935520
H           1.89944447525841    3.45111897394215   -1.79002024994147
H           4.31214963811060    3.91387256208120   -1.66177076667989
H           6.64534684368874    3.10956905617808   -1.70489476109107
H           8.25217861040504    1.25954366381717   -1.73439988147713
O          -3.02753710821013    3.47747843541396   -0.38052127643443
S          -2.89618161889352    2.04169659492802   -0.27194044197126
O          -2.82065220015080    1.44673803970935    1.04278190041511
C          -1.56867408995447    1.45960330991502   -1.29953455501402
C          -0.22496515371106    1.68002025026077   -1.11277396019145
C           0.67199297353792    1.10854396822283   -2.02473006102421
C           0.17384228522293    0.36553680616991   -3.10006622525631
C          -1.18679522202791    0.16075211349989   -3.27618701592968
C          -2.07998549792987    0.70639995314851   -2.35892470774972
C          -3.53854643194252    0.58603210410239   -2.33937252189373
C          -4.35536788768706   -0.09086248122789   -3.24014089726710
C          -5.72654301333905   -0.10420815385819   -3.03288200016890
C          -6.31075732829679    0.53675466472449   -1.93565926218202
C          -5.49248142161766    1.22309689476674   -1.02759508938394
C          -4.13761144326143    1.23486627212553   -1.25692982791698
H           0.13415931912824    2.26018274875115   -0.27190808556022
H           0.86929641725907   -0.04505074808109   -3.82356754954747
H          -1.54365589394220   -0.41977490002623   -4.11899985439210
H          -3.93069101833157   -0.60868384106746   -4.09227105035965
H          -6.35805874234077   -0.64912965055516   -3.72592697975865
H          -5.91680601419006    1.74409453155475   -0.17835137721532
O         -10.47626435306560    0.92084803362860    2.08233817746498
S         -10.55290527340773   -0.20384837234018    1.17806205593277
O         -10.22210573681964   -1.52090907346359    1.67469062112736
C          -9.65546735306181    0.13252762005367   -0.31878956220210
C          -8.29277969341441    0.24795369406938   -0.45056482828782
C          -7.76823325337658    0.46665900412985   -1.73201660265322
C          -8.64281046210648    0.58398799111986   -2.81699513992186
C         -10.01700487897191    0.47617174931056   -2.66106803361300
C         -10.54122215343734    0.23389759466362   -1.39462486310539
C         -11.94188273255599    0.03357007855816   -1.01865435684347
C         -13.06444046559892    0.04572248632267   -1.84137237249080
C         -14.31281924190984   -0.20843142375752   -1.29081611305011
C         -14.47416303747665   -0.47521728048177    0.07248492580552
C         -13.34598991726264   -0.48718952140816    0.90452791279536
C         -12.11974988056846   -0.22986373058691    0.34178626648696
H          -7.64094482348226    0.14101721208603    0.40757185511998
H          -8.23886439952149    0.77712922261901   -3.80472009714403
H         -10.66889019490070    0.57227160972236   -3.52164672115597
H         -12.96986547536885    0.23891640326919   -2.90367679078030
H         -15.18107343555516   -0.23137343246616   -1.93987421966174
H         -13.44222416963596   -0.68502688042328    1.96480440812068
C         -15.79722397641535   -0.81381763388771    0.63212631275019
C         -15.91664417672114   -2.00094146179284    1.35672964164382
C         -17.13579531173821   -2.41833620908863    1.85492305112655
C         -18.28805069984681   -1.65096135522863    1.65070319140017
C         -19.56831316295586   -2.07246169202202    2.12281616688968
C         -20.67443121561765   -1.31268580672661    1.92991714976231
C         -20.60414013390082   -0.05187373735980    1.25807001908623
C         -21.74105404919033    0.75456199191890    1.05630843095066
C         -21.62034593730653    1.95573322680394    0.35667594370766
C         -20.39840223528454    2.38269575044393   -0.12971111360138
C         -19.24585607529936    1.61247289185660    0.06273338880804
C         -17.96376131214970    2.03876433409843   -0.39917148690398
C         -16.85805960744307    1.27512701579880   -0.21550116127720
C         -16.92840957373794    0.00434851725476    0.43813822739846
C         -18.18590256400277   -0.42191175490770    0.94803998419499
C         -19.34596105660578    0.37816017313689    0.75554414570629
H         -15.03777418612503   -2.61959059629268    1.50264319810812
H         -17.20614600999411   -3.35292071291785    2.40034406248994
H         -19.63727720760352   -3.02453089164327    2.63825822483723
H         -21.63982777949679   -1.65775182737148    2.28280883856979
H         -22.50005185250301    2.57443668904224    0.21613138875260
H         -20.32670688347874    3.32681863265033   -0.65869789328552
H         -17.88989461062576    2.99988494544600   -0.89723882375477
H         -15.89221292197390    1.63395132144296   -0.55305428464657
C         -23.05910788099014    0.37444183452359    1.61252568653173
C         -23.21094748742884    0.28971512072914    2.99709731041326
C         -24.43443047038226   -0.00903632335220    3.56902117192756
C         -25.55896252127433   -0.23753969309417    2.76850657481342
C         -26.83996222838444   -0.53829981408008    3.32822119523239
C         -27.91960948804440   -0.75586274855914    2.53733751472643
C         -27.81646119965518   -0.69722776656263    1.11179925392084
C         -28.91784630019570   -0.92046104356005    0.27800483458186
C         -28.78373881787281   -0.85982867270851   -1.10067574805750
C         -27.55590449638998   -0.57971040970071   -1.68001911075803
C         -26.42915793317286   -0.34836205259345   -0.88299724536036
C         -25.14424492780609   -0.06654685210057   -1.44319448027041
C         -24.06610212668645    0.16271307952052   -0.65357820565837
C         -24.16554377042744    0.13841343355656    0.77423833263853
C         -25.42469002072049   -0.16757344939177    1.35707665427288
C         -26.55502450860910   -0.40355251807526    0.52946036481940
H         -22.35452933260674    0.48489468304908    3.63352501670777
H         -24.52778591579495   -0.06057230068160    4.64834521683814
H         -26.92829346003448   -0.58780311438153    4.40857903352379
H         -28.88740807204920   -0.98143016404868    2.97297293835631
H         -29.64800037354907   -1.03483193840019   -1.73226735585938
H         -27.46236768726140   -0.53851519784309   -2.75982980787559
H         -25.04849284205412   -0.04442198035568   -2.52386626013505
H         -23.09815578115252    0.36207234210210   -1.10023159859469
H          31.79296098513223   -0.99554137862100    0.36484016811244
H         -29.88332654366657   -1.14261488911132    0.71977535575153
