    84
       -150.26896458
N         -12.73679010494291    2.27626298238974    3.09866299511440
C         -13.33059292954847    1.74048374312372    2.27069845847017
C         -14.09421519943627    1.10258621630876    1.25150458025929
C         -15.48896245892099    1.16213433404121    1.32189480147684
C         -16.26393773074182    0.58976528098214    0.32781416029813
C         -15.65255685342135   -0.04003115670408   -0.74904825766667
C         -14.26992807825658   -0.10126173484440   -0.82768681545818
C         -13.47016484157827    0.45982996867580    0.16747210975609
H         -15.95577230292049    1.66381300598243    2.16154755059629
H         -16.25604999514448   -0.48807123384259   -1.53013148977010
H         -13.80079286627348   -0.60931000324276   -1.66290419822434
N          -9.01320383299177    0.97427435175791   -3.60481475755073
C          -9.41327023600346    0.79423576708626   -2.54021772432388
C          -9.97118680513283    0.55807378749144   -1.25152913802701
C         -11.36183416046362    0.63121858523604   -1.13754564491429
C         -12.00052042171943    0.37298647933012    0.07206477864268
C         -11.22182666815103    0.00990507046783    1.17514817478826
C          -9.84746432076124   -0.06985225977444    1.06719216869672
C          -9.18897649110789    0.21471475957722   -0.13332041382090
H         -11.94299642187582    0.91011686355025   -2.00920768719501
H         -11.69892821602346   -0.22547844443437    2.11899991995554
H          -9.25227910344731   -0.35502910659661    1.92772485975025
C          -7.72288527317361    0.13166072895467   -0.15155651895052
C          -6.89660951285411    0.87013796534448   -1.00212198482349
N          -5.57967327425024    0.76731534713398   -0.96199735819289
C          -5.03392150131257   -0.06947454702268   -0.06994106674577
C          -5.85981747737086   -0.77694899387010    0.80790903923754
N          -7.17676412805517   -0.67712961744137    0.76748028749169
H          -7.30443240735431    1.57475764295947   -1.71785259932748
H          -5.45298101041573   -1.43545211226849    1.56853800139578
N          -0.30030954123475   -2.81033830118482    2.22818396277250
C          -0.81123449702641   -2.05623429624896    1.52465325204598
C          -1.47176083886126   -1.11720874973876    0.68019035099805
C          -2.86656940681210   -1.08021003304359    0.69851790732751
C          -3.56800345428678   -0.15174914134219   -0.06927859826912
C          -2.83599002127833    0.74065880844713   -0.86391354120382
C          -1.45528474494933    0.71028718535910   -0.88281871608727
C          -0.74424851466397   -0.21518538552945   -0.11681055483170
H          -3.38941135715341   -1.79314765317328    1.32497907159527
H          -3.37191579528059    1.46363907515638   -1.46883784713706
H          -0.91349399631989    1.40462995032585   -1.51549305544511
N           4.05473267888833   -3.67222847631593   -0.52174531682367
C           3.51838958784982   -2.66350120861944   -0.38316667031550
C           2.83613373296022   -1.42068855445450   -0.23852409498332
C           1.44121387958854   -1.41963655996155   -0.23464296212528
C           0.72937992105802   -0.22604025181256   -0.14113885105151
C           1.44065932278115    0.97568387986389   -0.07602675548904
C           2.82451854752530    0.97934236357908   -0.07850695029667
C           3.54769871582625   -0.21100726067422   -0.14711499025930
H           0.91569609385405   -2.36289597652725   -0.32297168346425
H           0.90413177508231    1.91425200671959    0.00538467121803
H           3.35645692322103    1.92099783144993    0.00003525413928
N           8.18886707343417    2.46233722676013   -2.49584808421835
C           7.75991424860066    1.69823129501658   -1.74938874985680
C           7.11829228505917    0.76497493433111   -0.88296066402283
C           5.72370732098681    0.72526461461759   -0.90222127137018
C           5.02158589805558   -0.18788330972873   -0.11929570097396
C           5.74107514749320   -1.06235929202058    0.69953930530650
C           7.12304343223757   -1.02426408383144    0.72794119757014
C           7.84044184865511   -0.12013443691200   -0.05845357632330
H           5.18687808242651    1.40207692766059   -1.55733867507909
H           5.21364750107856   -1.76375387736063    1.33500039637626
H           7.65310861882957   -1.69782236769194    1.39158218470459
C           9.30681900701878   -0.07715533888401   -0.02619419183614
C          10.09514319374242   -1.18292636133853    0.30320233970255
N          11.41535660326556   -1.12277955930363    0.31673866666952
C          11.99793212642320    0.03919358341045   -0.00772339390756
C          11.20815781330870    1.14439318125082   -0.33369462108692
N           9.88761168371811    1.08601543873322   -0.33989174848065
H           9.65150919439775   -2.14400938494578    0.54359108514315
H          11.64758151776736    2.10582507893101   -0.57831416096949
N          16.75743593713146   -2.85714867926937    2.01341686027190
C          16.20816450351995   -2.01616217832402    1.45259169331222
C          15.53249208581024   -0.96996572435868    0.75942601182250
C          14.14079940051494   -0.95968843625407    0.69533360968512
C          13.46696927483853    0.06468898273026    0.02650663995996
C          14.21374221081861    1.07355164291652   -0.58924828588239
C          15.59948637373990    1.06066267334587   -0.52892327232481
C          16.26589413246549    0.04948290646250    0.14375821792284
H          13.56863992762411   -1.74942935803394    1.16884837583304
H          13.71669050460827    1.86842758889020   -1.13310815809731
H          16.16482158909161    1.84816453761544   -1.01439485784323
H         -17.34487677413293    0.63632830346486    0.39032695415148
H          17.34811385035644    0.04051054949808    0.19366576059657
