   124
       -238.45726258
O         -19.34467090044139   -2.34035569735135    3.83587659944572
S         -19.41676762171194   -0.89654210702672    3.85522240018238
O         -18.95965059269852   -0.19269556707080    5.03206343496212
C         -21.03758559362452   -0.34640261249679    3.38374945674405
C         -22.20789230021682   -0.52703118610088    4.08543228863025
C         -23.37839229633436   -0.01192424120635    3.53393576294343
C         -23.34907824552056    0.65799800375795    2.31719364388107
C         -22.15889398706781    0.83038021437955    1.62014585498501
C         -20.98128764779035    0.32093057373818    2.15797257172628
C         -19.62965863906487    0.39004628381288    1.59482873031414
C         -19.22335237636804    0.97390484275691    0.39897268255661
C         -17.88266292553170    0.93182554312821    0.04465267235032
C         -16.92396889964574    0.31865697843834    0.85814720388436
C         -17.33046756556296   -0.27195978472444    2.06289499306160
C         -18.66231088813826   -0.22132751571151    2.39495462286872
H         -22.21595982883735   -1.05093884602079    5.03284687647716
H         -24.26955852736205    1.05355710149098    1.90277654569527
H         -22.15245854492735    1.35485922520180    0.67172803605629
H         -19.94114110736788    1.45415763620970   -0.25580067771093
H         -17.57627953532948    1.37057163632338   -0.89847819578022
H         -16.61389452647604   -0.73991964086590    2.72620556556847
N         -12.66718811593889    3.43259564463738   -1.79070491491370
C         -13.07012336549321    2.48706398442836   -1.27274129902187
C         -13.60361498973461    1.33618267609932   -0.62334916341505
C         -14.93719124217452    1.36768226790766   -0.21546764204183
C         -15.50810806064615    0.28651919736563    0.45308947486232
C         -14.70725416551020   -0.82724594109607    0.72555900355786
C         -13.38217245857713   -0.86099601270369    0.32902122494965
C         -12.80706357946094    0.20728490896442   -0.35968575872826
H         -15.52059817598693    2.26037434387602   -0.40923600777559
H         -15.13153880735908   -1.68643234684261    1.23200902100009
H         -12.78688868715478   -1.74389961371703    0.53293078918382
O          -7.43896579782160   -0.04371985004221    1.66984998743903
S          -7.69649918896627   -0.92281248299224    0.55251744405291
O          -7.77094367788803   -2.34659358196386    0.78927207221825
C          -9.11762568131723   -0.37443389643131   -0.36290810276013
C         -10.41791613516182   -0.33823272707380    0.07926436614667
C         -11.40135058121688    0.14223050595145   -0.79674996326069
C         -11.03350808252586    0.54508419747008   -2.08403561733348
C          -9.71578373373141    0.49686300184451   -2.51317815238715
C          -8.73334012734965    0.03673049678859   -1.64147828730333
C          -7.29449575090613   -0.07206670298258   -1.88102814089925
C          -6.58628561619782    0.26689530094735   -3.03109832727509
C          -5.21107807840051    0.11095715595761   -3.04555519185726
C          -4.50484854188027   -0.37826739244265   -1.93699435161350
C          -5.21868208304426   -0.73181152830749   -0.78148943291578
C          -6.58281255136577   -0.56934117917205   -0.78659940534083
H         -10.67186468365552   -0.64828690573290    1.08527582957468
H         -11.79767877052514    0.89187609097588   -2.76980744508584
H          -9.46076060577310    0.81624375053021   -3.51673943273576
H          -7.09886958998370    0.65410646709572   -3.90387437704971
H          -4.65136232158854    0.37914217284046   -3.93502183041304
H          -4.72275320763685   -1.12250663719633    0.09782535919801
C          -3.04394878659829   -0.48026514019489   -2.02333105527189
C          -2.21032729103605   -0.82484119754190   -0.95466680429545
N          -0.89531569471680   -0.86180582768374   -1.07411875408069
C          -0.35521662087877   -0.56233486862408   -2.26337906100168
C          -1.18917396089787   -0.23036411818852   -3.33501524849062
N          -2.50334560788248   -0.18950722135759   -3.21527714810631
H          -2.60884488508306   -1.06757407319101    0.02483415052195
H          -0.79064931783502    0.02246096533549   -4.31226181192073
O           4.34966916982258   -2.10561289205597    0.70666729947614
S           4.34690699547191   -0.77004955487625    0.15537361885456
O           4.18327738331003    0.35356897207780    1.04957382046111
C           3.21029869696625   -0.65506961704275   -1.20668019389764
C           1.84157032111004   -0.70645943816949   -1.14355620821805
C           1.10977001687167   -0.56714626774012   -2.33586837974338
C           1.80415895624260   -0.40998062844686   -3.54120466829794
C           3.18951912871587   -0.36056753558851   -3.58385633481367
C           3.91401320817976   -0.47106197629336   -2.40089220584160
C           5.36350578297169   -0.39212113670096   -2.21948106457885
C           6.34051142367288   -0.17467992834054   -3.18687568820377
C           7.66851827803932   -0.07719936932679   -2.79839690931713
C           8.05304705018103   -0.20169082145225   -1.45988897140660
C           7.07539065063502   -0.44325837804827   -0.48518844856146
C           5.76473639352799   -0.52611182648698   -0.88813981388158
H           1.32211077855084   -0.83880511657032   -0.20217747028425
H           1.25836434104615   -0.32207867992667   -4.47345015943780
H           3.69614809122849   -0.22971337995989   -4.53301428530134
H           6.07239513980412   -0.07393250737484   -4.23209264440581
H           8.42812809933841    0.08787836870945   -3.55442681726640
H           7.34093879443957   -0.53145235366186    0.56092294534556
N          12.92693584944655    2.97362606386373   -2.44355962072644
C          12.33637770682278    2.14501102697819   -1.90566228747236
C          11.57912925429902    1.12127370124945   -1.26612596454755
C          10.24876721231866    0.94546797221863   -1.64686653217573
C           9.46625879514668   -0.05203783942569   -1.06988286147315
C          10.04419252487096   -0.88852547730799   -0.11101952875178
C          11.36893100822822   -0.72962477422885    0.25684699173569
C          12.15647757564368    0.27845374273285   -0.29955751935608
H           9.82197997661336    1.61366542764694   -2.38603158725050
H           9.45609548162263   -1.68079488358534    0.33776428881760
H          11.79728398186889   -1.38539260269953    1.00650362905867
O          16.61542326433558   -2.60478527034789    1.91178510897754
S          16.94293988637090   -1.73428985838834    0.80497440908823
O          17.26412150258837   -2.32596949120946   -0.47410250596644
C          15.69503352858192   -0.48372413522584    0.61458388510258
C          14.39105412267568   -0.67758263822533    0.22828126799020
C          13.55929753123672    0.44526132261795    0.12064492443193
C          14.07351009692482    1.70976219893091    0.42180485712340
C          15.39159783697703    1.88373214384011    0.81694081186000
C          16.22541041498044    0.77349242045138    0.91326647727523
C          17.63711417828823    0.73295987891764    1.29572807193891
C          18.46191798187018    1.79604800737117    1.64996556005994
C          19.78655484925845    1.54978394784198    1.98097554362146
C          20.31924557972487    0.25626550684371    1.96919580173609
C          19.48883942826465   -0.81784898102719    1.60678516345154
C          18.18238997550591   -0.55447828615076    1.28383960197974
H          14.02290612051175   -1.66771064315342   -0.01004818046176
H          13.42386122778690    2.57503186369927    0.35959498996524
H          15.76143674741671    2.87623851035865    1.04590792120636
H          18.07986372329587    2.81016383132495    1.66681677648838
H          20.41643604959778    2.39188319486186    2.24350293496216
H          19.88514746734128   -1.82585351608877    1.58664639100354
C          21.71981409175847   -0.02598839944488    2.31456988490496
C          22.57896147090936    0.90317507855882    2.90519241640556
N          23.83976915219986    0.61187281075269    3.19457809696553
C          24.26185539014020   -0.61565511992852    2.90700150592069
C          23.41278022447835   -1.55359581200556    2.33733587909365
N          22.15447585925123   -1.26294738523832    2.04159174857530
H          22.24692911011723    1.90411975344098    3.16101330077349
H          23.75063714025237   -2.55985756572582    2.11085787864031
H         -24.31787046511439   -0.13543111372629    4.05967906744761
H          25.29495961542048   -0.85039526825933    3.14025691656770
