    78
       -142.91690616
N         -13.09934001149003    3.11412324545920   -0.84614224120057
C         -13.45743689111868    2.09083132850115   -0.45775044358015
C         -13.96412871694839    0.85709416733455    0.03990477075250
C         -15.35237888085527    0.74023133479260    0.17156417115499
C         -15.91661043647176   -0.40757000527327    0.69968213396990
C         -15.09696944062183   -1.44976020931489    1.11778076204082
C         -13.72322249803234   -1.34346223951719    0.99122925850628
C         -13.13005715639163   -0.20268172936538    0.44199374880518
H         -15.98147532930500    1.56578440869906   -0.14082373214398
H         -15.53225290207709   -2.34662683507624    1.54349435947468
H         -13.08012769234751   -2.15390754968696    1.31653226719257
C         -11.66491217809192   -0.17509638012942    0.32733070175553
C         -10.95725935895912    0.54915972638315   -0.63541957113508
N          -9.63685783709660    0.54182010440042   -0.68621688045533
C          -8.96957683615794   -0.19459588270536    0.21208501543334
C          -9.68052308088535   -0.96587277660108    1.13549133868035
N         -11.00091104513059   -0.95455570580638    1.19198658628141
H         -11.46668870664666    1.13500043737333   -1.39207981776962
H          -9.17729545656298   -1.61328397499644    1.84640494235810
N          -4.61580818214339    2.03445136472389   -2.99205590194451
C          -4.99302278974804    1.39316050402450   -2.11343258848173
C          -5.51443683715467    0.62673247784360   -1.03173312305897
C          -6.90104775591171    0.54361164971312   -0.91513542293921
C          -7.50479702033564   -0.14297528090611    0.14021403863828
C          -6.67820300570000   -0.73846030127128    1.10051115336955
C          -5.30423167244094   -0.65725308986749    0.99170776215056
C          -4.68817421746729    0.00970540451179   -0.07221757285590
H          -7.52749145613046    1.02840295321802   -1.65571759120795
H          -7.10571780018167   -1.26282484780821    1.94699805343770
H          -4.67475870954126   -1.11935895949561    1.74443580243366
C          -3.22122518877622    0.03956033019534   -0.10794237630530
C          -2.45177441748939    0.15049043245073   -1.26929430707887
N          -1.13110346876081    0.17517007266999   -1.23411339135899
C          -0.52406064562947    0.08334672067277   -0.04338307439946
C          -1.29353940199584   -0.08356812031869    1.11144753097579
N          -2.61383656405899   -0.10497876293049    1.07889527188411
H          -2.91025016593887    0.20131421364625   -2.25035848404377
H          -0.83752146947738   -0.20900102952681    2.08821546404744
N           4.05228648482588    0.26692429442477   -3.68492591997510
C           3.60882057931268    0.21172724321143   -2.62392077014900
C           3.01005557067101    0.16248206320223   -1.33238666938958
C           1.61754266100360    0.13773366182717   -1.27046346945241
C           0.94184741493650    0.13689517338309   -0.04862658324023
C           1.70037901847654    0.19507310869092    1.12689117420817
C           3.07958090019809    0.22063913750755    1.07174738537636
C           3.76794422884615    0.18552371822092   -0.14516973502844
H           1.04397128590081    0.12031164591884   -2.19063348403998
H           1.21559219723357    0.22542709082039    2.09551049043112
H           3.65671976946338    0.26222569513105    1.98920475697650
C           5.23490270820753    0.17157865847524   -0.10270208943579
C           6.05105489260290   -0.40797628339404   -1.07722262514530
N           7.36711216863652   -0.43038428440518   -0.96423991631654
C           7.92413758416586    0.12405367714044    0.12091862550354
C           7.10487935313812    0.68537088339007    1.10499079025670
N           5.78819341558758    0.70287976797105    0.99726147433180
H           5.63332103887599   -0.88677538609899   -1.95563482029304
H           7.51553897599470    1.12929626832437    2.00620197151861
N          12.62888489840686    1.65132556310204    3.32728248550413
C          12.15225591652887    1.12050525548386    2.42353026004818
C          11.50168279777281    0.50222743567504    1.31733486584056
C          10.10949726614319    0.60054427185068    1.26419150629751
C           9.38849545169169    0.06811808019519    0.19636318249547
C          10.10160498146249   -0.54635914531478   -0.84293603825136
C          11.47617603120261   -0.64396876446532   -0.79716959363582
C          12.20703406086091   -0.14320362054509    0.28515474238684
H           9.60409399404967    1.10760606428852    2.07770312786525
H           9.55411516250441   -0.95050592466005   -1.68708520421566
H          12.01588085506375   -1.12355784361718   -1.60645846573828
C          13.66602120675198   -0.32371176621665    0.27772590008814
C          14.44525109922140   -0.44880586327132    1.42921703579629
N          15.75687214623173   -0.63588750618509    1.37175478776670
C          16.30973235083671   -0.70625197215641    0.16506074517857
C          15.54041364967174   -0.61612711542579   -0.98581685085914
N          14.22899209671534   -0.43028895631889   -0.93329677523534
H          14.00183924258033   -0.41939636719828    2.41799741084825
H          15.98546959601329   -0.69494721812569   -1.97275476358427
H         -16.99335944235150   -0.48688322070145    0.79330180163248
H          17.38449161465190   -0.84769471615387    0.12131064024491
