    42
        -60.40711442
C          -6.32744382104746   -1.70126967615628    0.31781154436295
C          -6.72189447875156   -0.72827575768115    1.22637611959625
C          -5.89664259459770    0.36144420905538    1.46898968588978
C          -4.68179536259046    0.47633243150928    0.81108639531488
C          -4.27608548307974   -0.49685101887174   -0.10444609627385
C          -5.11547701280080   -1.58619167735890   -0.34549267230751
H          -7.67041410088901   -0.81846904733149    1.74372937595097
H          -6.20262430117371    1.12759481817093    2.17305510927375
H          -4.05098825603753    1.33943232016395    0.99420617927484
H          -4.80868830545682   -2.35810032654820   -1.04294036159106
C          -2.98470897415232   -0.36850400333464   -0.80813079241010
C          -2.87783128997142   -0.68304589484403   -2.16422714660011
C          -1.66344028201221   -0.54101026964151   -2.81756494581575
C          -0.54528964457417   -0.08796531176289   -2.13451366909380
C          -0.62785919613138    0.22636261756654   -0.77595583550486
C          -1.85383730330296    0.07897359288356   -0.12658751702542
H          -3.75088012064323   -1.01783416759231   -2.71312054088344
H          -1.58870232912096   -0.77728466975524   -3.87352752080510
H           0.39111308104169    0.04111742971435   -2.66544048768995
H          -1.92449018584534    0.28378097382085    0.93615079503702
C           0.55353484685880    0.71783936856270   -0.03977933769326
C           0.41374147830753    1.68519155552976    0.95840895659686
C           1.52527617155643    2.15289069145761    1.64180099971711
C           2.78933422777829    1.67184748610442    1.33889642677282
C           2.95326246466167    0.70675196421377    0.34312904184873
C           1.82921646577331    0.23575983428580   -0.33430390605978
H          -0.56568765826073    2.08875102881096    1.18921950856116
H           1.40446235181457    2.90252383572010    2.41623558577749
H           3.65083152957762    2.03332837422604    1.88908209181657
H           1.95222488862784   -0.51608408511170   -1.10630235785082
C           4.29879870209696    0.19891705459185    0.00961507117220
C           4.50627793485110   -1.15526815219723   -0.25986082469124
C           5.77311796595937   -1.62464635973118   -0.57129948615859
C           6.85010245305409   -0.75005304623679   -0.62334535461127
C           6.65373944071948    0.59871329857601   -0.35898950105718
C           5.38899119846840    1.07006213899789   -0.04282035182293
H           3.67420043805731   -1.84878528243043   -0.20603997586481
H           5.92178757423777   -2.68001036584567   -0.77239972834186
H           7.83977342949490   -1.11832791578339   -0.86906572039577
H           5.24260509899004    2.12796799499340    0.14661416927409
H          -6.96742691043516   -2.55569613333392    0.12643594922039
H           7.48981586894926    1.28829014259001   -0.40118887490749
