   182
       -320.20085867
C         -29.95687953997599   -1.05661316987004   -1.06656259709647
C         -29.56364934271684   -2.11868047426249   -1.86618306622973
C         -28.21968366617703   -2.38050640448695   -2.08233255310606
C         -27.23524090112125   -1.57983849023573   -1.49235541980721
C         -25.84039397622519   -1.80684302749254   -1.70555655653871
C         -24.90067146828169   -1.02692929499497   -1.11595922420130
C         -25.25988496187401    0.05530529012713   -0.25051227432580
C         -24.30401176099006    0.87885260390192    0.37696756925281
C         -24.72286935153266    1.97660490456591    1.13020261313736
C         -26.06495985069683    2.25128214961810    1.31439703238142
C         -27.04480027603106    1.43331648997735    0.74044473531443
C         -28.44047993452562    1.67713859331975    0.93142691233799
C         -29.37799094507400    0.88079760528388    0.36084890524365
C         -29.00493772063376   -0.22843653045135   -0.46121690815594
C         -27.62508131437443   -0.49182825674974   -0.66901042103184
C         -26.64100202732516    0.33212454763954   -0.05942637170541
H         -30.31472104449299   -2.74922428494867   -2.32935157006153
H         -27.92251395860443   -3.21090178238435   -2.71367736693329
H         -25.54585156729900   -2.61902337940430   -2.36204405332606
H         -23.84973866660101   -1.20704523282368   -1.31319815222388
H         -23.97672628179830    2.60739673659466    1.60126206138166
H         -26.36463158026240    3.10236606475136    1.91598859206369
H         -28.73311757800841    2.52001735602731    1.54876996294796
H         -30.43450997263654    1.07428383021831    0.51414745360173
O         -19.47447064870656    2.75262927027029   -2.12822650272148
S         -19.34912204253758    2.44210794042320   -0.72118877082242
O         -19.20066698125366    3.53044065160165    0.21903048050796
C         -20.64213960642689    1.33902602959152   -0.20623435617947
C         -21.98511896951164    1.62166345356201   -0.14432847765504
C         -22.85652701856888    0.60756340266389    0.27521514765616
C         -22.33213090181116   -0.63827033388898    0.63385812646309
C         -20.97117906842777   -0.90225164013609    0.57073434358313
C         -20.10360832493340    0.09659797418589    0.13846218928684
C         -18.64862580659944    0.03020500013566   -0.01110572365588
C         -17.80334345350443   -1.04698262922482    0.23932588204987
C         -16.44013983887310   -0.90541716557434    0.02459196922023
C         -15.88789296226354    0.29324976408476   -0.44002151534324
C         -16.73614542866734    1.38161315984641   -0.69005145907809
C         -18.08227978758105    1.22189710911946   -0.46995916998469
H         -22.36458182981206    2.59504509264351   -0.42908046127251
H         -23.00460527155919   -1.40994857854529    0.99162323919955
H         -20.59364408028984   -1.87635353444324    0.85937568003564
H         -18.20059236068251   -1.99133269895623    0.59287624342678
H         -15.79082379287332   -1.75556479547942    0.20129934008105
H         -16.34215415547302    2.33120654584064   -1.02997312990021
O         -10.90225354049910   -2.29142442856150    0.69741950808361
S         -10.84636638885028   -0.84961798390821    0.80043467658339
O         -10.72991532583220   -0.25106891396659    2.11159020346763
C         -12.18609989863577   -0.11618287957283   -0.10796431421137
C         -13.52605629263362   -0.23308586467614    0.17014767162423
C         -14.43948442328889    0.40840393826998   -0.67900906615821
C         -13.95482707383545    1.14604939049005   -1.76459511951176
C         -12.59721560334031    1.25073088940612   -2.02928071364091
C         -11.68818485144070    0.60730145126688   -1.19431125528723
C         -10.22887028404488    0.56314679180099   -1.30448019887722
C          -9.42134728338843    1.14795494452726   -2.27548412666005
C          -8.04797319573723    0.95799751143482   -2.21872658830269
C          -7.45026464163221    0.20307225989436   -1.20530119263314
C          -8.25910941560101   -0.38600827416015   -0.22343667751235
C          -9.61730050673503   -0.19130378164759   -0.29991993475678
H         -13.86340688895037   -0.79353915319830    1.03305675998480
H         -14.65763725063742    1.63012699919822   -2.43341209713479
H         -12.25501496249414    1.82240837475262   -2.88405032081090
H          -9.85441283058762    1.74166089004085   -3.07214186709673
H          -7.41819359431811    1.41584875853005   -2.97360177547921
H          -7.82828975211902   -1.00237860659181    0.55553701009297
C          -5.99062880300442   -0.02146992427606   -1.21610400011898
C          -5.41809961379394   -0.54729845432309   -2.37534910508768
C          -4.06970279413458   -0.84184854653777   -2.43994699021434
C          -3.23698125218015   -0.60556357022503   -1.34034381617971
C          -1.84680093653438   -0.93172718339037   -1.36384233113030
C          -1.04698920744511   -0.67961617894739   -0.29876089204854
C          -1.55741523570206   -0.06192893335289    0.88688728262254
C          -0.73811412410484    0.22650480159577    1.99701347418884
C          -1.30436977045815    0.76648577134148    3.15107797025709
C          -2.65369403688399    1.06217977938084    3.21738395780571
C          -3.49262475533654    0.81367099951359    2.12515301826990
C          -4.88491888728935    1.13080297063765    2.15139908430480
C          -5.68789650408367    0.87122885644482    1.08982309490971
C          -5.17863365409554    0.25932521308483   -0.09910769900489
C          -3.78848904879644   -0.03526649836779   -0.16345704580376
C          -2.94550724267268    0.23787840270081    0.94926364968595
H          -6.05434210575372   -0.75628008015677   -3.22878802729209
H          -3.65142788260162   -1.26831422595447   -3.34508289973011
H          -1.44291621503081   -1.39548707842749   -2.25763795652139
H           0.00253806157959   -0.94883381942778   -0.33202600653378
H          -0.66519013845469    0.97578604174587    4.00203811863655
H          -3.06855426310586    1.49543956417535    4.12087667595762
H          -5.28940295184426    1.59430012548931    3.04496776461628
H          -6.73722631910028    1.14087026826758    1.12776501398720
C           0.71326474479414   -0.06587312504006    1.98248748137681
C           1.21499720812167   -0.99963341383084    2.88845194944274
C           2.55343313848353   -1.34710714164479    2.89281894146484
C           3.44454495913348   -0.76210820249260    1.98611749206901
C           4.82112160099988   -1.13713652038542    1.92765909576497
C           5.67233070352404   -0.56055564730033    1.04338476482085
C           5.23584977517845    0.46507045281059    0.14619560678121
C           6.09885541795382    1.08080295151735   -0.78261382333053
C           5.59544206776645    2.03032132833616   -1.67328436368004
C           4.26630167515987    2.40674541579797   -1.64674873711054
C           3.38122443909720    1.82626716027757   -0.73134492477911
C           2.00414807614384    2.20103721572093   -0.67322112493380
C           1.14956343193178    1.60713251384539    0.19548726465938
C           1.59050283239886    0.57898775369927    1.08777813326832
C           2.96630268474411    0.22199428409798    1.08258046045173
C           3.86340830930941    0.83921622012206    0.16747611421527
H           0.53241298341553   -1.47794510590728    3.58255145848054
H           2.91758738882175   -2.08892922698231    3.59513987180062
H           5.17234180260977   -1.90953900280426    2.60361409474891
H           6.70579817858779   -0.88481573402580    1.00109345247390
H           6.27109308366047    2.49834356699025   -2.38127565272364
H           3.90280790857101    3.15885686827389   -2.33831211051731
H           1.65487267945475    2.97821074662591   -1.34484490501384
H           0.10922130394410    1.91032486246726    0.22957346337982
O          11.16695974672592    1.95630190448561    1.82514993706758
S          10.95487978198541    0.60128653435918    1.36760519832688
O          10.72881923979305   -0.43569611914757    2.35067738056525
C           9.70109936755325    0.54845377487919    0.10975931304567
C           8.36797035744494    0.84656094649977    0.26289447043514
C           7.53573004671967    0.74887618063386   -0.86107956578050
C           8.08794021188892    0.37069837984157   -2.08869278708934
C           9.43546331211479    0.07052951818372   -2.22256660979450
C          10.26335327708032    0.15528429064134   -1.10720371592963
C          11.70223428387576   -0.10033302721841   -1.03096944992539
C          12.55837941462666   -0.50573906437886   -2.05057257508767
C          13.90752667603106   -0.67195975227955   -1.77722934087218
C          14.43609476677337   -0.44016201151270   -0.50227873815809
C          13.57328573006708   -0.04597082357603    0.53089661682792
C          12.23945886773924    0.11042522799691    0.24099568630640
H           7.97691433550158    1.17376012830273    1.21799888649229
H           7.43989441264167    0.29629889118480   -2.95505098787584
H           9.83373831080610   -0.22504273071404   -3.18620599573457
H          12.18104952634593   -0.69165739471636   -3.04931720391036
H          14.56484862369876   -1.00528534386999   -2.57233036991818
H          13.94849634931704    0.15491798476724    1.52658822830299
O          19.45332502508086   -0.94900179990010   -3.22940235582017
S          19.47859947711372   -0.04283605277794   -2.10213796456617
O          19.56360455949437    1.37799292296340   -2.35603547652130
C          18.13786350797580   -0.40240028677086   -0.99437402585451
C          16.79958542048203   -0.24301636419722   -1.25501482105025
C          15.87947691062968   -0.59539567143572   -0.25665635830277
C          16.35829186229714   -1.08951309027540    0.96141807836242
C          17.71607088073394   -1.23860773070815    1.20686013468471
C          18.63172953322981   -0.89153811442995    0.21729468253408
C          20.09389287459752   -0.96690052211452    0.26030859669249
C          20.90562542680590   -1.39529540059694    1.30659987210442
C          22.28451445234683   -1.38226164479449    1.14575716860229
C          22.88125593892759   -0.95406685074443   -0.04376156414890
C          22.06808378444916   -0.53641671841997   -1.10555238578266
C          20.70671236808407   -0.54596551954960   -0.92308625770949
H          16.46912745040085    0.16445606352494   -2.20214677167960
H          15.65229001936489   -1.38286114197460    1.73025857190219
H          18.05330440172024   -1.62725675735985    2.16070578324335
H          20.47187775387920   -1.73855268296398    2.23868084689708
H          22.91509815414631   -1.73350296532026    1.95490645732363
H          22.50418714716100   -0.19717121406872   -2.03681306510726
C          24.34858531120350   -0.97048913704081   -0.21193729679601
C          24.88669636213895   -1.68447938961312   -1.28320701736861
C          26.25320061372719   -1.77287239378493   -1.47322337573331
C          27.13700143942268   -1.13372520374141   -0.59651973678574
C          28.55516829935762   -1.21561546895039   -0.75902624716110
C          29.39834064351238   -0.57992563255252    0.09149309216881
C          28.89952720280476    0.20255027106987    1.17992362817144
C          29.75247600526716    0.87412173037494    2.06303781133966
C          29.23807676966009    1.63283462486368    3.10318325696652
C          27.86862733664262    1.74131102965011    3.28843307743298
C          26.98051622512426    1.08252538945834    2.43079171712856
C          25.56261254417268    1.18319131855934    2.57949117638881
C          24.71755145137985    0.53225350049750    1.74224570400585
C          25.20442864809810   -0.28860239524540    0.67536153341498
C          26.60991099595089   -0.37520971208850    0.48160413693579
C          27.49495271430080    0.30077454987185    1.36405164079229
H          24.21602476512743   -2.19930975447765   -1.96269029301353
H          26.64693388463441   -2.34595770258442   -2.30547940975763
H          28.94254526610301   -1.80218116281623   -1.58555989513554
H          30.47295862607042   -0.64917036482654   -0.04120387757761
H          29.91371619658356    2.14848520324320    3.77687834091640
H          27.47631908632821    2.34129512806828    4.10243474357696
H          25.17213305078228    1.80407872918525    3.37907090723084
H          23.64580341716888    0.64292786537856    1.86419519098916
H         -31.01150313782547   -0.86012866517870   -0.90619851625557
H          30.82586800362271    0.79804299211182    1.92674288615352
