   162
       -276.10512467
O          21.89819604436365   -2.37500767409122    0.87847660160265
S          22.19279748741545   -0.99926338213178    1.21293207241401
O          22.06320491147799   -0.57575835864421    2.58949603964454
C          23.77155587996402   -0.52020225171302    0.55708990196534
C          25.00370717862949   -1.00248047985600    0.93605078412065
C          26.12541703729468   -0.49029476943588    0.28871542283569
C          25.98808215171691    0.47403388962942   -0.70182691827255
C          24.73610528203745    0.95070736301001   -1.07286141286623
C          23.60588075905959    0.44791883410148   -0.43625287809100
C          22.20362940730196    0.80245095676441   -0.67527919959430
C          21.68865250239103    1.71842534052811   -1.58753413421632
C          20.31507217660320    1.90023853793578   -1.66648468149355
C          19.43046452512197    1.18461900436827   -0.85375084918506
C          19.94643248120973    0.26579513701522    0.07116888718557
C          21.30829288762020    0.10184381215226    0.13560276687425
H          25.09534379388928   -1.75416289699851    1.70985496890841
H          26.87201679561420    0.86207125801492   -1.19541488501024
H          24.64581158367120    1.70263543298448   -1.84811620382790
H          22.34741904207224    2.28311717853509   -2.23709649528309
H          19.91914368075723    2.60090369461589   -2.39323719411704
H          19.29165179791288   -0.28889168317470    0.73153370873968
N          15.14017912127692    5.20457024916699   -1.63432041166487
C          15.53896141437617    4.13709932021323   -1.47387717058985
C          16.05218924662693    2.82307155183001   -1.27357814559813
C          17.43330178655494    2.64204896840524   -1.18665986781584
C          17.97418452816158    1.37788320004026   -0.96267206201057
C          17.10472423943553    0.28923177133582   -0.84006771353570
C          15.73544378393755    0.46511740311138   -0.92429007466914
C          15.18121831275513    1.72925531661595   -1.13046216588656
H          18.08231089677120    3.50640739893824   -1.26921171412113
H          17.50541873003346   -0.70792826700948   -0.69785279507777
H          15.07985573750541   -0.39503433652977   -0.84817447109646
C          13.71720405681772    1.89577563709952   -1.22162516041328
C          13.16523164304020    2.47300458818217   -2.36500628813004
C          11.79596114945197    2.57747883703075   -2.52444930637607
C          10.92435724377910    2.10425154709189   -1.53705315287571
C           9.50489443227921    2.15765455380979   -1.69059510602400
C           8.67401410561019    1.68953145894796   -0.72666341811411
C           9.18299578499479    1.13871308992109    0.49155102749652
C           8.33947430688662    0.63447980449168    1.49842945948627
C           8.89225586587234    0.08495914415521    2.65607461167863
C          10.26082834502973    0.03506851634746    2.84323278423679
C          11.13038393500209    0.52003148037679    1.86013005434223
C          12.54830743901474    0.48782091774945    2.02381938872718
C          13.37923763112372    0.93182245838780    1.04885984255580
C          12.87267577913933    1.44746188927612   -0.18596175702896
C          11.46409953481352    1.54390795539230   -0.34990407317026
C          10.59183132410772    1.06988193699874    0.66804902000691
H          13.82481766161919    2.82163619429219   -3.15196208430981
H          11.39026193067325    3.01789391818143   -3.42857120364520
H           9.10317397188483    2.57625264366271   -2.60735659997869
H           7.59941350274439    1.72316843175813   -0.86845690967420
H           8.22947603997299   -0.29167551587378    3.42765759569379
H          10.66800902312035   -0.38397877578546    3.75688545105068
H          12.95019988897777    0.10041136668486    2.95409517940565
H          14.45202497354355    0.91333454281557    1.20415622399429
C           6.86394151027144    0.68396788625780    1.38243678595929
C           6.20938185411359    1.91504410637368    1.39870054627752
C           4.82797947449469    1.98914586869048    1.39968594274846
C           4.05033338041404    0.82546480844270    1.38572288398240
C           2.62439225660964    0.86438588824821    1.45107926917090
C           1.88662509163479   -0.27365553558902    1.44624480359023
C           2.49995302028586   -1.56259596534636    1.34636619104386
C           1.75890300857374   -2.76178679588985    1.33879026460967
C           2.42418861958009   -3.98816724515621    1.29411286947801
C           3.80280902831174   -4.05747824471942    1.23853085265677
C           4.57267061964982   -2.88940833331020    1.24504667537895
C           5.99957253353343   -2.92887435510948    1.19758283820638
C           6.73568634135543   -1.79151359393033    1.23945234825579
C           6.11380936287870   -0.50624510719592    1.32635384164571
C           4.69478317907286   -0.43751483554618    1.33246537222758
C           3.92023103134932   -1.62989939248175    1.30350506588808
H           6.79753350559325    2.82521763593664    1.44183235503333
H           4.33885408378275    2.95665917244243    1.42981300176644
H           2.13886868392783    1.83194048677371    1.52123849065921
H           0.80757155305814   -0.21473208644449    1.52962472552369
H           1.84114434911815   -4.90293152390898    1.28109919096188
H           4.29481526046289   -5.02284074089520    1.19296773611199
H           6.48418215421007   -3.89716546701579    1.12950785495744
H           7.81811366515677   -1.84075094763254    1.19855332430423
O          -3.06858177933729   -1.87717972874404   -1.74166961501922
S          -3.09049796896366   -1.35034570067891   -0.39509608681938
O          -3.02889429813709    0.08221905160789   -0.20746887834230
C          -1.87381912063947   -2.15935604435104    0.61705485351164
C          -0.50731702769924   -2.07197608671822    0.49393515302235
C           0.28435351466132   -2.78119005179824    1.40802860400212
C          -0.33662091825065   -3.55826193871170    2.39095476118153
C          -1.71689827426438   -3.63594321134879    2.49759595809950
C          -2.50635924162936   -2.92344134584685    1.60058839879820
C          -3.96662830196972   -2.86123717404381    1.54106771773556
C          -4.88411709084386   -3.50654913684309    2.36443192130574
C          -6.23982696370841   -3.31423505833217    2.14747133927978
C          -6.71110322701669   -2.48473776115961    1.12470574088182
C          -5.79006733275641   -1.83427389407225    0.29189825836193
C          -4.45040091398280   -2.04138714068037    0.51901441465901
H          -0.05607978430565   -1.49198309689135   -0.30114447127993
H           0.28085164330258   -4.10049721101696    3.09861817277217
H          -2.16889659402686   -4.24195095147883    3.27418723498575
H          -4.54885016386965   -4.14915201055229    3.17020311006049
H          -6.95147566162014   -3.80344544497433    2.80323893117433
H          -6.12411295591580   -1.19998993229288   -0.51981353609887
N         -10.94964270484825    1.53806051155488    0.12711342043507
C         -10.55955841324589    0.46936511513177    0.29909732681881
C         -10.06071942191733   -0.84566619889685    0.53258147402365
C          -8.68319285737592   -1.03563251937008    0.65016461945077
C          -8.16106640872726   -2.29270789219334    0.94627661280290
C          -9.04307636334373   -3.36558199412692    1.10841582462411
C         -10.40879498934309   -3.18191544167530    0.98789683526235
C         -10.94397843140865   -1.92734233229036    0.69890595291098
H          -8.02299357442659   -0.18272087714224    0.54266068785498
H          -8.65394386707881   -4.35602109512560    1.31604595289622
H         -11.07788200210928   -4.02651223911557    1.10975765312536
C         -12.40919112244173   -1.74848198729464    0.64488316798478
C         -13.15006821633100   -2.10552885526355    1.77196599318789
C         -14.51958095630583   -1.92481944436607    1.81686729991836
C         -15.19955636652094   -1.37558180702830    0.72433943888108
C         -16.61244274723099   -1.16710543108333    0.74273747906578
C         -17.25624038234584   -0.62236340925519   -0.31843355954217
C         -16.54895404916213   -0.23702910171936   -1.50140046850430
C         -17.19877576996731    0.34130590019202   -2.60978847096937
C         -16.47446739815379    0.61708632881488   -3.76865301130792
C         -15.11560562726384    0.37012817610259   -3.84058927869423
C         -14.42949527699673   -0.16554949315103   -2.74478509685187
C         -13.02608924228421   -0.42676213305332   -2.78297993940740
C         -12.37422948766310   -0.93482186249961   -1.70800660312262
C         -13.06343007769176   -1.23079601336303   -0.48968028590535
C         -14.46982580255138   -1.02887689532528   -0.44260134196804
C         -15.15016214215395   -0.47768342577206   -1.56292259799403
H         -12.63281377521287   -2.50854661098235    2.63624602968590
H         -15.07264581708090   -2.20060861168788    2.70806333511860
H         -17.16335704266928   -1.45836498409366    1.63086798134176
H         -18.33028264434252   -0.47862941557666   -0.28794204621516
H         -16.98856619536886    1.05144144843937   -4.61931373414134
H         -14.57124163360336    0.60047704352978   -4.74996500499319
H         -12.48764155743074   -0.21072414199153   -3.69973434517639
H         -11.31065238942455   -1.13662363175037   -1.76513960980640
C         -18.64678193668337    0.64497380122850   -2.57903050989416
C         -19.49112467439831   -0.01525454094508   -3.47068217973912
C         -20.85660473596634    0.20613274125965   -3.46495963633146
C         -21.42823117990499    1.10919592271397   -2.56181409897493
C         -22.83783063797637    1.34455053439458   -2.51382483427701
C         -23.37435212308593    2.22515464680239   -1.63331630933710
C         -22.54918646732034    2.95749347525122   -0.72272654996850
C         -23.08282764127769    3.87159808054347    0.19277118651750
C         -22.25500252495699    4.56803541155502    1.05973634779490
C         -20.88235784273435    4.37495250251782    1.03497982240108
C         -20.30740677397804    3.46918352421366    0.13670859435892
C         -18.89579345725458    3.25125587783223    0.07304960122180
C         -18.35946069563534    2.35781634940675   -0.79407625091393
C         -19.18101481804939    1.58978120438484   -1.68064935024457
C         -20.58319580776012    1.81578349520762   -1.66636605287387
C         -21.14540855721320    2.74662113445856   -0.75214348292524
H         -19.06533102468886   -0.73268090074711   -4.16409073378247
H         -21.49397526722434   -0.33042780121868   -4.15947060644778
H         -23.47195599799681    0.79594778394753   -3.20259242566356
H         -24.44587901592408    2.39358442386652   -1.60423008640336
H         -22.68541754873579    5.27231468705303    1.76337542148307
H         -20.24384900078500    4.92778162082125    1.71559314074455
H         -18.25650065449697    3.82405016163128    0.73675199224751
H         -17.28535839634101    2.21561041547530   -0.83271366712485
H          27.11141799074626   -0.84804948526620    0.56094874352983
H         -24.15520233593352    4.03266829973489    0.22006973203923
