   104
       -180.10923508
N         -17.08673777348745    3.10161993613296    0.65892044782943
C         -17.36057928310683    1.98827976853792    0.76806449182757
C         -17.75564788754739    0.63086826814549    0.93583290940711
C         -19.10399649659594    0.37995237109802    1.21346050357314
C         -19.54796161039745   -0.91063589563906    1.44265291568236
C         -18.64435902182864   -1.96672979805988    1.41418204329245
C         -17.30871673129968   -1.72792759424402    1.14220912666967
C         -16.84026619913758   -0.43645421799149    0.88438288302427
H         -19.79695525326382    1.21244135245314    1.25242386016413
H         -18.98434655723962   -2.97826448290507    1.60476722605923
H         -16.59961544107192   -2.54824996736605    1.11996077202522
C         -15.41160590562596   -0.26979629440828    0.57983184904170
C         -14.89715715612169    0.73002251903239   -0.24964042367517
N         -13.60383206614803    0.82985447285927   -0.51118044082420
C         -12.78846255316080   -0.07059821192604    0.04962135772969
C         -13.30377903090884   -1.09257485621908    0.85141069541335
N         -14.59517026679028   -1.19394005121476    1.10837862713918
H         -15.54567918561926    1.45370053404455   -0.73052518551909
H         -12.64361901673483   -1.83738318360416    1.28503522955623
C         -11.35943754638099    0.04717439702845   -0.22560199321330
C         -10.84819133511677    1.02426742704338   -1.08281657856353
N          -9.55302701404585    1.13785678682114   -1.32171770407378
C          -8.72972712794304    0.28444681441506   -0.69718048445284
C          -9.24882520382242   -0.72525095503234    0.12001211081608
N         -10.54466797914597   -0.84138326298201    0.35782040354061
H         -11.51496779236602    1.72087933759921   -1.58128615801050
H          -8.60137042157996   -1.47533134657821    0.56302316237592
C          -7.29774693029132    0.40437872852502   -1.00573374134532
C          -6.95177789784112    0.63009107759311   -2.34069140259937
C          -5.63297496951050    0.65097014337613   -2.74610693888257
C          -4.60150957314015    0.45946119060554   -1.81810761096775
C          -3.23073409923561    0.41682625474151   -2.21302525802919
C          -2.23849905018594    0.26587761049134   -1.30083286412119
C          -2.52027667051631    0.16252225352737    0.09777208920301
C          -1.50549396305145    0.03504706215766    1.06813467562474
C          -1.84837473134954   -0.15139568843526    2.40781147186023
C          -3.16871239442517   -0.16511115593320    2.81536723332559
C          -4.20205357621779    0.00081464059669    1.88603896372591
C          -5.57246399065031    0.05105746250712    2.28168942579289
C          -6.56521892204848    0.18995377551068    1.36775092181860
C          -6.28533678079154    0.27677569037626   -0.03205374995318
C          -4.92401646619934    0.29506977350150   -0.44539164442946
C          -3.88105439920825    0.14993988666926    0.51145718114111
H          -7.74820331318879    0.76504601493596   -3.06458910491094
H          -5.38864606833828    0.80499074202836   -3.79143440148157
H          -2.99771361339980    0.49955057380004   -3.26939800311853
H          -1.20706160972145    0.20915320058753   -1.62970418202091
H          -1.05874657778384   -0.25467831853888    3.14443673865412
H          -3.40972386410075   -0.29116831199912    3.86528015109242
H          -5.80531395940071   -0.01103758587252    3.33951113304091
H          -7.59435914527587    0.26386588251947    1.70018956958884
N           2.44270029876281    3.36184393075612   -1.71713419926563
C           2.18334208008935    2.45070171210527   -1.06252380679478
C           1.78456371956938    1.32891420281073   -0.28152958687398
C           0.42269982273466    1.21382288242289    0.00975322721905
C          -0.07359445410728    0.12305652134605    0.71887890760682
C           0.82279439159031   -0.86574444591637    1.13580623474464
C           2.16986232696680   -0.75875558441392    0.84909435209405
C           2.68560739484596    0.33801845400624    0.15068289376191
H          -0.24810695363118    2.00365520809041   -0.30817024867043
H           0.45406216403354   -1.73004429365199    1.67665382887104
H           2.85688059515419   -1.53315318979193    1.17283235085416
C           4.13554553556644    0.39163141232899   -0.07614013885596
C           4.87139016174080    1.57194145825607   -0.21498168025445
N           6.18152864392892    1.56839605315024   -0.38118345518450
C           6.81020772057648    0.38594189383283   -0.41346326837339
C           6.07909775366080   -0.79336775725871   -0.24546173849288
N           4.76789133098559   -0.79065770212051   -0.07680473972034
H           4.39385937649028    2.54401477134357   -0.16787506978845
H           6.56191080088387   -1.76567183511861   -0.23414698711071
C           8.26631666335791    0.42138524821751   -0.59058538171124
C           9.04429504845992   -0.71024131826260   -0.84089686970678
N          10.36087767821856   -0.64992159965584   -0.96812681256385
C          10.94651353750945    0.54866378167491   -0.85692061282886
C          10.16268203227871    1.68485801856302   -0.62277514808108
N           8.85138189695997    1.62396149094233   -0.48859163355141
H           8.59868839396498   -1.69379034439340   -0.95303076319157
H          10.61782540037495    2.66446293849859   -0.51337565213607
C          12.40720989988745    0.63876930144892   -0.99539461738720
C          12.94150139040290    1.72001187083262   -1.70303968926164
C          14.30219058065623    1.86154064063759   -1.89038466955318
C          15.19509384027236    0.92171470328452   -1.36263976702029
C          16.60751066153956    1.03891418930913   -1.54669038753910
C          17.46265831845087    0.12455655159878   -1.02578803919559
C          16.98092147562536   -0.99043096981688   -0.27123908652079
C          17.84753541626634   -1.94270313805952    0.27737334826475
C          17.35214052431444   -3.01298543157740    1.00608418517396
C          15.98853362330029   -3.15943507221765    1.20598742675184
C          15.08755888790802   -2.22961961183630    0.67452048687069
C          13.67708773883082   -2.33778001072869    0.87144252549076
C          12.81835971540779   -1.42981555589656    0.34503071447968
C          13.27850070585328   -0.32446728171062   -0.43800454943602
C          14.68115965129737   -0.17709590752423   -0.62460366562650
C          15.58117525134832   -1.13093525793752   -0.07550267228191
H          12.26866366967272    2.44846741795835   -2.14289390706442
H          14.68489497289682    2.70365252596729   -2.45675499115246
H          16.98119707326471    1.88329382752840   -2.11660390129778
H          18.53339941362402    0.22351158547229   -1.17116665851876
H          18.03839503232702   -3.74148164774957    1.42411623688427
H          15.61070538694920   -3.99941277576980    1.77892754714498
H          13.30205776784505   -3.16785220681411    1.46121718218860
H          11.75440728006759   -1.53726708194336    0.51611169558100
H         -20.59570258090885   -1.09296530595205    1.65196680663276
H          18.91673536430045   -1.83755203658004    0.12783214454715
