    60
       -116.08273100
O          -7.94063036620856    2.98913010616927    1.08959073309447
S          -7.98338230086304    1.59617597659683    1.47541135829370
O          -7.96037936983823    1.26472668049190    2.88275417022847
C          -9.31869221069062    0.76011477331229    0.65651058634026
C         -10.66554147871338    0.97164585163586    0.84492557328093
C         -11.55186148413647    0.20234079343944    0.09487963588947
C         -11.07719318608867   -0.74125477483836   -0.80752733806556
C          -9.71352341938043   -0.94277607690490   -0.98602465316581
C          -8.81538968899665   -0.18195214798526   -0.24406784247150
C          -7.35131699658172   -0.23240233910479   -0.27641155922248
C          -6.53126425069528   -1.04807038712226   -1.05204868614381
C          -5.15621331787029   -0.93596148934373   -0.92943438581883
C          -4.55933224524863   -0.02472507958759   -0.04660901182336
C          -5.38490855156324    0.79763307383127    0.73561260531646
C          -6.74533598912447    0.67102049916645    0.59919512651750
H         -11.02217741721174    1.71034464789804    1.55154197423851
H         -11.78149297890636   -1.33128874835793   -1.38311758775578
H          -9.35856253597856   -1.68270908398452   -1.69382754345879
H          -6.95865018617993   -1.76355885876609   -1.74482204615786
H          -4.51149593068128   -1.56809467745572   -1.53053521912314
H          -4.97743537632999    1.51805674529167    1.43303137887896
C          -3.09591409126247    0.03904617466202    0.03030154283107
C          -2.39262603949084    0.90688055501128    0.87129198514737
N          -1.07315788768023    0.93159281557607    0.90964756227170
C          -0.39572529352816    0.09336449287593    0.11218836428577
C          -1.09892891494381   -0.77422941239968   -0.72922414999075
N          -2.41920420224166   -0.79916237110774   -0.76759341657261
H          -2.90218760068453    1.60063517897810    1.53170488865243
H          -0.58845913751397   -1.46736983533945   -1.38980594073180
O           4.50296884678596   -1.10234608974693   -2.70203791449992
S           4.51810701699659   -1.43200075407773   -1.29445505664321
O           4.48365078052888   -2.82414725815981   -0.90589085701810
C           3.26374997189662   -0.51626931353744   -0.43058691308544
C           1.90527155460039   -0.65424111977893   -0.57780847758069
C           1.06703363173947    0.16348301338374    0.19593831305069
C           1.64984497173118    1.08146743982803    1.08177888779678
C           3.02203785044211    1.20549484394903    1.21579286010502
C           3.85506624777705    0.39469851057438    0.44829682140922
C           5.31667484359318    0.35778511319384    0.42856964446839
C           6.20662995499312    1.12593272892011    1.17342690155839
C           7.57148776551102    0.93967398371149    1.00913495663628
C           8.08374730897912   -0.00361554671229    0.11126059346268
C           7.18540154232749   -0.77995753559831   -0.64125387058248
C           5.84027208595109   -0.58137086373433   -0.46526058010503
H           1.50813725237355   -1.37934097246934   -1.27656105958409
H           0.99539247320023    1.70973624517293    1.67627431054370
H           3.43738929789084    1.92608897802745    1.91060358873267
H           5.84339079195914    1.86539166241440    1.87768795379445
H           8.24600255850960    1.54905151533288    1.59932435938802
H           7.56128522526774   -1.51578563612069   -1.34183764092716
C           9.52552835424685   -0.21829203549827   -0.07996247570178
C          10.51986529968976    0.48416781178448    0.60495995932391
N          11.81048092175212    0.25831315516130    0.40114037336165
C          12.13205399731355   -0.67370115679475   -0.49086635813480
C          11.15470255032645   -1.37883491973286   -1.17805099330448
N           9.86489523745877   -1.15458048277722   -0.97576486517483
H          10.27864868641301    1.24830528226850    1.33661648816992
H          11.41226638504208   -2.14051840900009   -1.90706413164033
H         -12.61932410312484    0.34278482544009    0.21795068825827
H          13.18852314646091   -0.85662609806232   -0.65589361084272
