   156
       -268.75148721
O          21.81416700541660   -3.38147533939080    0.47319299283060
S          21.70747458069852   -2.49682632133969    1.61241322955239
O          21.11894410210590   -3.00489553569866    2.83234367614976
C          23.26860669531061   -1.71965668442611    1.94890987971417
C          24.42287828496836   -2.33438514192541    2.37835042496710
C          25.54567255767856   -1.53488568919054    2.57773386159833
C          25.48618455631475   -0.16635146499659    2.34573184264548
C          24.31212970762840    0.43924022307653    1.91356410674519
C          23.18151952111316   -0.34601079420112    1.71136159906034
C          21.85487917820554    0.08430954868742    1.26058734721737
C          21.42942490309236    1.36974576317091    0.93986163159736
C          20.11921860403516    1.56764051953719    0.52726598167630
C          19.21164176493152    0.50913277176406    0.42748896296618
C          19.63979948569046   -0.78959518726424    0.73885942814890
C          20.93916195950221   -0.96416953065299    1.14863296087017
H          24.45544792402367   -3.40223881946712    2.55394619877234
H          26.37034551400492    0.44099603364974    2.50397538850230
H          24.28196783180562    1.50810151893782    1.73683273317262
H          22.10809045917856    2.21175803640732    1.01216311232538
H          19.78472422016727    2.57183597987313    0.29105537551670
H          18.97123197296782   -1.63486179906535    0.63492911981498
C          17.83633144213662    0.74678445829004   -0.04964779741973
C          17.65839164083588    1.45848729655543   -1.23723732065076
C          16.40163663647667    1.64817889830610   -1.77926142242725
C          15.26850097844943    1.11934949899091   -1.15053240511086
C          13.95977548452424    1.27034560880471   -1.70197634882542
C          12.87288476498380    0.73807392953565   -1.09050587262441
C          12.99001489262264    0.01181365736594    0.13617446045565
C          11.87351426993482   -0.54911552298497    0.78568462469014
C          12.03815481742099   -1.19404056713858    2.01199398322459
C          13.28455646646569   -1.30889034901396    2.59952077428172
C          14.41943731105506   -0.78377647611145    1.97130200917167
C          15.72032583931755   -0.88361289687062    2.55116224384900
C          16.81382986944116   -0.39210805268761    1.91736449948348
C          16.71322111570491    0.24750530021563    0.64145254221324
C          15.42040320894758    0.41890359976819    0.07452509033149
C          14.27597106723890   -0.11589774150368    0.72765984409508
H          18.52968463257620    1.84232857916890   -1.75718382915024
H          16.28958605886250    2.19585863722891   -2.70855831560447
H          13.85381334636779    1.82432600360610   -2.62878005640671
H          11.88685469397108    0.86839211880225   -1.52243163292967
H          11.17218401779435   -1.62983952402434    2.49838358366380
H          13.38964799408467   -1.81883226499693    3.55085637442557
H          15.81612653927079   -1.36150195822347    3.52029080833678
H          17.78688025706981   -0.46307080184439    2.38970924475187
C          10.52918978868885   -0.51292926830436    0.16776636548070
C          10.32098296728257   -1.18303056009213   -1.03825427972102
C           9.07039137806672   -1.22733168607392   -1.62628454222765
C           7.97499966214671   -0.60280172275981   -1.01889019920120
C           6.67411497076026   -0.61663809407150   -1.60621408199886
C           5.61730372584440   -0.02669168254179   -0.99322067619508
C           5.75657889865867    0.63233873921813    0.26850178406607
C           4.67319615708744    1.23657942131606    0.94019016000047
C           4.90973163495438    2.00035264664696    2.08746607764896
C           6.17423355543317    2.11604120419538    2.62639021502788
C           7.26202992261458    1.46390283799310    2.03167116644077
C           8.57594205354344    1.53321752217085    2.58547837536327
C           9.62181452139418    0.89940982525543    1.99923485630675
C           9.45406557996883    0.14471210818150    0.79625000633020
C           8.16270982880307    0.09055028066552    0.20480192083324
C           7.05864933712686    0.72878489841002    0.83443848125912
H          11.15484047597623   -1.69289757476555   -1.50846247314218
H           8.93085520127363   -1.75640837719908   -2.56269553120313
H           6.54874144221594   -1.10497678442227   -2.56690542881697
H           4.64891334062133   -0.02275051282919   -1.48027364705657
H           4.06635931003410    2.48823302674132    2.56416796172921
H           6.33085801109486    2.70258754839270    3.52498495981249
H           8.72097680667879    2.11007510042928    3.49283092096735
H          10.61358603181473    0.96984902495021    2.43192071333786
C           3.27400857903283    1.08358692463315    0.52111656794231
C           2.72219351979896   -0.13243969880673    0.10519458346040
N           1.44675558682258   -0.25147949761443   -0.21736138122920
C           0.66553670203448    0.83514513255883   -0.12554507035519
C           1.20894351004733    2.03727665375710    0.33553059734907
N           2.48599615366616    2.15822267603254    0.65671866290973
H           3.32039521876080   -1.03742135000047    0.06860106006809
H           0.60148796146375    2.92831732244566    0.45527148938887
O          -4.60655941483156    3.03405659059653    0.58206959270870
S          -4.32204440280301    2.60021234062226   -0.76804194516273
O          -4.13882657490841    3.60268861182219   -1.79448623063622
C          -2.97581495119986    1.44217998100626   -0.77877645004795
C          -1.67208890989693    1.70649619959899   -0.43775708407113
C          -0.74339186808836    0.65595047158712   -0.49440634174497
C          -1.18431560759216   -0.61033720604789   -0.90558288178559
C          -2.50375515753470   -0.85637064837297   -1.24681683586793
C          -3.42874621560434    0.18322777141343   -1.18124165292818
C          -4.86244535855955    0.14620880999760   -1.47425315771552
C          -5.63096966655730   -0.93663992507667   -1.89259911784119
C          -6.99214581502644   -0.76389073279150   -2.10385730756007
C          -7.61470679693875    0.47227599070922   -1.90552173314409
C          -6.84172208650244    1.56933691099095   -1.50097076663874
C          -5.49779946754989    1.37767952328381   -1.29374598192390
H          -1.38671270100921    2.70493027426081   -0.13231885584147
H          -0.46039688352011   -1.41704948380115   -0.94952327268397
H          -2.80903184271352   -1.84908036328961   -1.55689063975408
H          -5.17607280961354   -1.90673490876058   -2.05637515144315
H          -7.58340081617246   -1.60312691684101   -2.45291282218473
H          -7.29856379762522    2.53751541922529   -1.33804733873473
C          -9.05821796063415    0.66105831605919   -2.15181219368380
C          -9.44854739862042    1.68348367065389   -3.01815553392639
C         -10.78019759452846    1.90914761434488   -3.30883400813663
C         -11.77866385349548    1.11815869445550   -2.72935598601828
C         -13.16386784229221    1.33555566337802   -3.00039890185957
C         -14.12213549280919    0.56908588751106   -2.42415407450028
C         -13.78635970839851   -0.49255387348371   -1.52624139284773
C         -14.76859675533863   -1.29282400459909   -0.91159424232952
C         -14.38677303635694   -2.28722453935872   -0.01088134821226
C         -13.05516449468733   -2.50825333160121    0.28989030148044
C         -12.05224429361586   -1.73334202125631   -0.30356592306969
C         -10.67029694986621   -1.91757519706021    0.00502978944413
C          -9.71012837913785   -1.15678427249614   -0.57678216097643
C         -10.03599911198983   -0.14455126223635   -1.53411605682540
C         -11.40833480929125    0.08343206980262   -1.83105427632130
C         -12.41572600444102   -0.71566695919127   -1.22320255520170
H          -8.68584488114506    2.29613071277033   -3.48655750316732
H         -11.05824484003092    2.70378717634048   -3.99235795203621
H         -13.43496281862026    2.13959091825456   -3.67644189851957
H         -15.16923125849084    0.75991434530219   -2.63103513736272
H         -15.15159218339847   -2.90486288295457    0.44734259318444
H         -12.78138573229939   -3.28877006381590    0.99146604108741
H         -10.40242890046493   -2.67857870091100    0.73055046268629
H          -8.67071829796248   -1.29987170021206   -0.30375633352502
C         -16.20442258023296   -1.11067868974331   -1.22442888424165
C         -16.65891016135295   -1.37556623182985   -2.51631264006317
C         -17.99616279985907   -1.24739138774945   -2.84420683100251
C         -18.93004080907314   -0.84162910635071   -1.88409549626870
C         -20.31477225368530   -0.68574877022428   -2.19311877459838
C         -21.20846306087636   -0.29266420970818   -1.25199367891355
C         -20.80876448025461   -0.02012746588141    0.09369118821195
C         -21.71703501907882    0.39576180257375    1.09226524916515
C         -21.24352139226974    0.68886800535328    2.37414743995267
C         -19.90596697770102    0.57000444404847    2.69540699460242
C         -18.97842320998230    0.15436596613425    1.73348668224771
C         -17.58839127266031    0.03052483737921    2.03488396850765
C         -16.69788915569673   -0.37233334470609    1.09535500354130
C         -17.11543853191453   -0.69671960880405   -0.23352679525957
C         -18.49138566402114   -0.56139276887053   -0.56418781884733
C         -19.42892159781066   -0.14201502211563    0.42043507810603
H         -15.94932469654101   -1.70445523160688   -3.26786686653656
H         -18.32871127831803   -1.46441357553072   -3.85349230990702
H         -20.64039159215630   -0.88586588595597   -3.20857646429756
H         -22.25259005118448   -0.18055237494581   -1.51667910787228
H         -21.94833216286409    0.98985211205309    3.14190371493966
H         -19.56845681932060    0.79376445746139    3.70151968702299
H         -17.25668155939495    0.27437818374764    3.03870445272406
H         -15.64426404191017   -0.44641970626570    1.34041296436073
C         -23.16110821961253    0.53387274792570    0.83857639351060
C         -23.88698698780415    1.60421169374879    1.36966242595456
N         -25.19355297927480    1.73129346270578    1.18959571865770
C         -25.79831740224392    0.79084539303584    0.46762572131253
C         -25.08585551725701   -0.26210463845662   -0.08315197987112
N         -23.77750219016291   -0.39598650245225    0.10076940097325
H         -23.39278356037041    2.38628793726117    1.93769122556314
H         -25.57540389307233   -1.02369650105569   -0.68216801327850
H          26.47167554491605   -1.98529322458165    2.91533781742694
H         -26.86964989289011    0.88815263034273    0.32672424959221
