    78
       -142.92347667
N         -13.17179187061957   -1.06008823695940    3.32027651699360
C         -13.59316178831876   -0.84014474795384    2.27137984859249
C         -14.17780672814750   -0.55320419934133    1.00551506651404
C         -15.57423217767002   -0.58545286475486    0.92068893090050
C         -16.21611665997354   -0.26274415871152   -0.26194022076657
C         -15.46883848653108    0.11257118615136   -1.37254764719667
C         -14.08759979683875    0.14769653958830   -1.29794138983156
C         -13.41471781206587   -0.19507616951162   -0.12138267682846
H         -16.14821952187636   -0.86146162415010    1.79771190201299
H         -15.96712403253091    0.37798460580621   -2.29787375661799
H         -13.50013336817876    0.44045811645523   -2.16125162507835
C         -11.94515314371762   -0.15307104193097   -0.13113369639157
C         -11.13027819753982   -0.96252792380760    0.66580329406291
N          -9.81019885737728   -0.89372800457589    0.61914117437224
C          -9.26577396485670   -0.01835718887220   -0.23445176899768
C         -10.07608734964318    0.76034318701380   -1.06427907842163
N         -11.39429936129660    0.69286235599775   -1.01461711452850
H         -11.55379734826251   -1.69559991482284    1.34297692594874
H          -9.63290797978842    1.44961348160100   -1.77628497316677
C          -7.80895086960374    0.07473593055236   -0.26409281996554
C          -7.00265774424529   -0.69441045784397    0.57971726327291
N          -5.68628023999951   -0.60444271376775    0.55880349745102
C          -5.12693830349350    0.25520837184010   -0.30703341924948
C          -5.93830462211150    1.01709134874449   -1.15333733378699
N          -7.25865625978716    0.93147077450796   -1.13267931952498
H          -7.44974838811151   -1.39135272147968    1.28173963222891
H          -5.51641598409056    1.71429583783430   -1.87000278327645
N          -0.33039663763878    2.86304316649020   -2.62717871745856
C          -0.85511971839153    2.13190357204878   -1.90950881239364
C          -1.53670765885997    1.22926663619486   -1.04270569876970
C          -2.93165751392076    1.20466676386778   -1.08649180975809
C          -3.65978358345919    0.31854491060364   -0.29312392416075
C          -2.95101945281649   -0.54784565294161    0.55032729150196
C          -1.57112592605619   -0.53022568848347    0.59451603020426
C          -0.83316164810904    0.35442384872317   -0.19491692596974
H          -3.43304962989786    1.89277577766047   -1.75672868112670
H          -3.50443016627141   -1.23988334033662    1.17531166998211
H          -1.05046449124613   -1.20191932273429    1.26782912315342
N           3.71253863558903   -3.28353323670650    0.10615654734977
C           3.32166124849920   -2.20342278150952    0.02840444722820
C           2.71376407438395   -0.91475101891717   -0.03630840767805
C           1.32119938693797   -0.87055197497539   -0.09440891548109
C           0.63885253780164    0.34440963790572   -0.13349631455481
C           1.38245399184784    1.52745616961238   -0.09905607236782
C           2.76371377366750    1.49117460982446   -0.03758928263028
C           3.46005624335550    0.28039834641954   -0.00835579950617
H           0.76860245376068   -1.80254372268722   -0.13111815741120
H           0.87585675455634    2.48512144566150   -0.10878084965288
H           3.31126702448571    2.42680397536742   -0.03123587415480
C           4.92578005475976    0.23836696393562    0.03556561537681
C           5.70663208704653    1.28224108258150    0.54220854482055
N           7.02808242044069    1.22657015542456    0.56317516881038
C           7.60716068232009    0.11691681223743    0.08706811882770
C           6.82889859183989   -0.93732828820362   -0.39894994449083
N           5.51084789073712   -0.87298551171428   -0.42903204377665
H           5.25396660728599    2.17794541190106    0.95581226672189
H           7.29805876377610   -1.84127752167392   -0.77436828864299
C           9.06593485366904    0.05811562580199    0.09921022626799
C           9.84733179836575    1.11860589200123    0.56480426964947
N          11.16659500166797    1.06059019141210    0.57757249283581
C          11.75000841782384   -0.05958758519490    0.12639578631024
C          10.96401363346152   -1.11236335804235   -0.35238011755824
N           9.64261823156614   -1.05718952859605   -0.36540002283010
H           9.37891801153890    2.02648602867441    0.93213782288253
H          11.41000493230000   -2.01992867780340   -0.74635380735994
N          16.67416366870242   -3.40680643217493   -0.35453979125849
C          16.08239101946279   -2.43259628347790   -0.19859979678675
C          15.34715899616871   -1.22677665515684   -0.00709757913455
C          13.95196790377838   -1.25455449607760   -0.03274792475818
C          13.21924726063237   -0.08196430901252    0.15249154028913
C          13.91063082726256    1.11577755053620    0.37348413957703
C          15.29487742942913    1.14340216603509    0.39840087142609
C          16.02162196468538   -0.02129730957927    0.20661948391866
H          13.45317259031497   -2.20402492017552   -0.18674521869664
H          13.34275667724635    2.02726678035407    0.52358462424978
H          15.81332201771866    2.08032131897555    0.56804457319569
H         -17.29806263084205   -0.29498574402312   -0.31649465826283
H          17.10484145530215   -0.00642124763600    0.22358835333280
