    86
       -167.52877909
O          12.43009857870310    1.27405777491217   -2.91041837080909
S          12.56284880391336    0.10918002325767   -2.06531146908073
O          12.60208329627938   -1.19728437937392   -2.68366227628715
C          13.91388208462535    0.30614708874284   -0.93083422230494
C          15.25310321644784    0.36151364795452   -1.24370731416195
C          16.15592633501022    0.51863711773850   -0.19502297887330
C          15.70425450113338    0.61535956617136    1.11521749083367
C          14.34811437929716    0.55629463935606    1.41459109877813
C          13.43392217938020    0.39800826699629    0.37793239183767
C          11.97412372920276    0.30148706451162    0.47077261167717
C          11.17670976893341    0.34339640961602    1.61053707348969
C           9.80137025408639    0.21181098302453    1.48281490743142
C           9.19154705057331    0.03824525818044    0.23591388096740
C           9.99120201118067    0.00834498329638   -0.91570341939038
C          11.35003857879006    0.13832421707310   -0.76761725402374
H          15.59057389989326    0.28454812280701   -2.26957430374863
H          16.42075548095820    0.73791277375099    1.91962726092505
H          14.01190071487336    0.63154485090537    2.44211265660744
H          11.61919491121316    0.46885008097652    2.59184532688663
H           9.18817056604397    0.22023722160350    2.37692502319898
H           9.55169614926036   -0.09755485619657   -1.89960246265037
O           4.25727953776518    0.68494204475058    3.14496348943147
S           4.21980349296349    1.14445417643378    1.77447871238316
O           4.17443786438976    2.56584249981798    1.51961325746548
C           5.51404526930770    0.37562677268398    0.83007144703363
C           6.86569886510289    0.57585668952107    0.97202585193072
C           7.73326646366762   -0.13075272699957    0.12653746907624
C           7.19566295070140   -1.00845817956688   -0.82144822889453
C           5.82797998144957   -1.19611485679685   -0.94995999810428
C           4.96433225369563   -0.49458796462289   -0.11420155279429
C           3.50197789129337   -0.53510575985922   -0.08875642459253
C           2.65048786809236   -1.28289552022875   -0.89636546592712
C           1.27962304113734   -1.16860450662133   -0.72321429881038
C           0.72760504473983   -0.32240118705481    0.24482980206169
C           1.58268479641831    0.42787930434144    1.06467346595528
C           2.93781080494898    0.30298646414810    0.87592987081378
H           7.24608520548302    1.27744743624834    1.70386227475052
H           7.86437397912901   -1.57258949922494   -1.46162898864495
H           5.44244007752110   -1.88489957521323   -1.69240575665024
H           3.04799499636391   -1.94992550759199   -1.65221345021709
H           0.62097214611174   -1.76621811556834   -1.34318586417766
H           1.18858171952238    1.10552601407801    1.81170635594634
O          -4.11528121378926    0.91501876632327   -2.63129989841106
S          -4.16078754379213   -0.27750143919466   -1.81698986423678
O          -4.15175038250503   -1.56668203720112   -2.47174301987259
C          -2.92013601018702   -0.21926066034727   -0.54792942851770
C          -1.56111755866713   -0.27639027821674   -0.73327388517173
C          -0.73376581990665   -0.23006593525840    0.39806055912779
C          -1.31824408694217   -0.11340796558810    1.66345993956194
C          -2.69490725268719   -0.05904510681452    1.82951742574191
C          -3.52001170074568   -0.11903834947547    0.70999768216030
C          -4.98353900213833   -0.10427818620326    0.65547327060058
C          -5.88853135191725   -0.03208589179667    1.71066030767438
C          -7.24980872096098   -0.05440057133691    1.44215113214672
C          -7.74186579762193   -0.14813787661355    0.13589714200820
C          -6.83277475523765   -0.21147530269789   -0.93021529097540
C          -5.49039836594693   -0.18876721279112   -0.64378810051715
H          -1.14261690127580   -0.33872768376967   -1.72999406696097
H          -0.68209577808387   -0.08950032550106    2.54111074181776
H          -3.11677283381210    0.02091674804667    2.82455334846735
H          -5.54018326957047    0.03305313417045    2.73483146690685
H          -7.94773168137780   -0.02058413214483    2.27115720683403
H          -7.17581803605800   -0.25953859102259   -1.95608415393573
O         -12.88517784860063    0.86773414707010    2.52944337001715
S         -12.73298319165546    1.36438719906882    1.18009014023961
O         -12.61304294132406    2.78994939234889    0.97458155908736
C         -11.41881287264001    0.50205691280558    0.35071772260072
C         -10.07892553830894    0.56899526524523    0.64643548524347
C          -9.18967088617555   -0.18915844439251   -0.12850965488751
C          -9.69694338450084   -0.98597415548239   -1.16086770753398
C         -11.05361941891477   -1.03847908533966   -1.44436158795112
C         -11.93768537261328   -0.28033439917847   -0.68302445126074
C         -13.39326386639443   -0.17680523043198   -0.81976684761444
C         -14.21108367225120   -0.80870992801716   -1.75112761301113
C         -15.57987344749720   -0.56905047983954   -1.71938171713997
C         -16.13791972280196    0.28486442556395   -0.77625401726279
C         -15.33219062070772    0.92457660313829    0.16261269266731
C         -13.97865387246120    0.67866409346343    0.11647517642301
H          -9.72125813028318    1.20948260981398    1.44295559412266
H          -9.01618381089668   -1.59379841468734   -1.74612108564320
H         -11.41387995854412   -1.66683793668539   -2.25046294202024
H         -13.79066537980056   -1.47719433444996   -2.49336485772874
H         -16.22154237256477   -1.05689625970242   -2.44450826270332
H         -15.75396732143158    1.59341656070398    0.90215077611994
H          17.21809376806914    0.56520126678787   -0.40454498547683
H         -17.20777281408015    0.45704023165217   -0.77026692007103
