   136
       -224.65503290
N         -18.30424378633952    4.95042491083994   -0.38226427894871
C         -18.79741060062696    3.91499415330025   -0.47990333590604
C         -19.42807991714990    2.64295398312156   -0.59305444954841
C         -20.82354511181877    2.57338518483012   -0.63048838720428
C         -21.45796628587792    1.34634540764921   -0.72134400794694
C         -20.70463228684305    0.17993435605986   -0.77627124875703
C         -19.32009206165661    0.24085694181853   -0.73490015908222
C         -18.66094242769397    1.46617290726823   -0.63934642756602
H         -21.40213987472930    3.48888071026283   -0.58705895448703
H         -21.19881504415855   -0.78174745558887   -0.85521399629737
H         -18.73665036145882   -0.67090631487366   -0.79840952634200
C         -17.18396468322631    1.52796402883896   -0.63152679640208
C         -16.53801099585979    2.26794339027689   -1.62159725062026
C         -15.15880060532162    2.31406004629957   -1.69502725390776
C         -14.37236341893961    1.61556501995669   -0.77194373288935
C         -12.94675332773009    1.61448703110076   -0.84143280486400
C         -12.19643316458730    0.92838757513997    0.05581371723002
C         -12.79619157068341    0.18828391846276    1.12208659713214
C         -12.03973617546589   -0.55041735397526    2.05854452260256
C         -12.69690961121623   -1.26689400246238    3.06274988792104
C         -14.07350778384222   -1.26473704929585    3.16856935937141
C         -14.85565550062024   -0.55715667868878    2.24861366376081
C         -16.28060318734131   -0.53857664334443    2.33130703396409
C         -17.03024709225400    0.12831677161077    1.41926849953640
C         -16.42531505732023    0.83876151152273    0.33520324802466
C         -15.00560816954370    0.87649674840261    0.26047214473627
C         -14.21654620072631    0.17050123363112    1.21103798298782
H         -17.13303510239952    2.79796512001976   -2.35708772965331
H         -14.67832146892713    2.88789818002529   -2.47975977650000
H         -12.47129964242568    2.17452303461048   -1.63982782608610
H         -11.11644389579679    0.94079669552102   -0.02467111635883
H         -12.10955993573146   -1.81419994837151    3.79235153930083
H         -14.55634384911516   -1.81607243126534    3.96804056758147
H         -16.75478773408200   -1.07240540377658    3.14826759279970
H         -18.11052027472601    0.14034280525278    1.51113660649400
C         -10.57124030046511   -0.62779748470264    1.99555994378726
C          -9.91103772782293   -1.84490869464591    2.18735331856756
N          -8.59850425733114   -1.96018461865940    2.08872507074632
C          -7.89275162049533   -0.85748922746635    1.79934290414600
C          -8.54497401472090    0.37129273323569    1.68169463455133
N          -9.86272380544476    0.48320315688608    1.76347182651799
H         -10.46589958204325   -2.75430440298139    2.39671539152781
H          -7.98844927973086    1.29391074304825    1.55138165246992
C          -6.43606269373986   -1.03770262088499    1.70509755927016
C          -5.85103179146612   -1.90682706199806    2.63097523958043
C          -4.48891840655535   -2.12157611124697    2.65757013195666
C          -3.65158774636768   -1.47853208808746    1.73758306714517
C          -2.23648469375345   -1.66451137653940    1.75276785124744
C          -1.43746310059301   -1.06899446328517    0.83323374507024
C          -1.97949595987742   -0.23014686732951   -0.19042678760797
C          -1.17007102486168    0.39044966733247   -1.16220536332274
C          -1.74080599869068    1.26857135511419   -2.08250797530927
C          -3.10368944766296    1.50147857769205   -2.09813187177422
C          -3.94551314811908    0.86378290547582   -1.17978264390544
C          -5.36385225238977    1.02104997487952   -1.21772962935372
C          -6.16637763932372    0.40398565058138   -0.31501119769925
C          -5.62974212978495   -0.40445800964437    0.73634889805040
C          -4.22286933256281   -0.62234709324214    0.76017454739226
C          -3.38154889812064    0.00659372270705   -0.19947517779766
H          -6.49544864340587   -2.40657658694088    3.34617445370611
H          -4.05804042802655   -2.79067237158104    3.39426537325110
H          -1.81012317943396   -2.29759024526002    2.52371987496689
H          -0.36370460731976   -1.21444754953367    0.87184961178191
H          -1.10431801626750    1.74887622914650   -2.81803269355817
H          -3.53023201110058    2.17003732843108   -2.83797060567557
H          -5.79198547726983    1.63478909486680   -2.00335302842066
H          -7.24206621432698    0.50405243553066   -0.40059460459016
N           2.83044909641271   -3.91827566548753   -1.93860649067546
C           2.50388923438949   -2.82532179224404   -1.78565489119198
C           2.08187719612647   -1.47841541966362   -1.59295089984975
C           0.72102063024691   -1.20257213580395   -1.45562062367803
C           0.27752461505232    0.10311789747371   -1.25873436357127
C           1.21788790675614    1.13370701935240   -1.20498334723853
C           2.57171084082062    0.86140073309286   -1.32036405850944
C           3.02680120068108   -0.44133335563167   -1.51545201358356
H           0.00482085056674   -2.01319673700099   -1.52565494866981
H           0.88480644454461    2.15491404192353   -1.05704885878648
H           3.28960018393243    1.67303286163933   -1.27849715201577
C           4.46856371494543   -0.73126264931662   -1.67802559388696
C           4.91154977690071   -1.27951892759461   -2.88079249723618
C           6.25085552678947   -1.54814489948452   -3.09321728513713
C           7.19731454176541   -1.28185798756722   -2.09738850118324
C           8.58340839582362   -1.57405328599618   -2.27468946510676
C           9.48936500467667   -1.31338330798948   -1.29947805449912
C           9.10044658362441   -0.72889573895792   -0.05315739428361
C          10.01977006255187   -0.44603568036824    0.97814358713329
C           9.55309429057592   -0.01187617638360    2.22192338542077
C           8.21087790652645    0.21491375281014    2.44713965906041
C           7.27465548661247    0.00680932932005    1.42658256935551
C           5.88143894638260    0.24916963236044    1.62265757277142
C           4.98104663574376    0.02687820699666    0.63335688321766
C           5.38864076692506   -0.46640554221179   -0.64573757127247
C           6.76770194580134   -0.73971802422331   -0.85841037104772
C           7.71643349598200   -0.48393585063607    0.17005161895525
H           4.19049464957917   -1.48549413308213   -3.66417475358640
H           6.57449226497078   -1.97038128078383   -4.03819643303137
H           8.89803054936634   -2.02622938330503   -3.20937677419231
H          10.52918910037734   -1.58059180677926   -1.44874940059166
H          10.27628107004158    0.16153708510304    3.01155523080493
H           7.87411625807688    0.56367494212544    3.41723640442767
H           5.55508850147843    0.61230645999215    2.59158977298571
H           3.92580533903090    0.20510209579957    0.80852122077046
C          11.47571035004757   -0.57470784663374    0.81964754248756
C          12.17372272534070   -0.11890599338665   -0.30029582710075
N          13.48666427682735   -0.24692257129662   -0.41446868715687
C          14.15110657974983   -0.81652575382698    0.59822656153669
C          13.45967160708456   -1.19381974497601    1.75411947304322
N          12.14810140698549   -1.07454610374251    1.86550041938557
H          11.66163917250664    0.38481530060006   -1.11404888923993
H          13.98842373625054   -1.58393413258306    2.61839368656891
C          15.60026815572483   -1.03331270663548    0.47431947371672
C          16.12867943469173   -2.22569819094893    0.97919602845559
C          17.47569728257209   -2.51602950788705    0.89324242402028
C          18.36168451793007   -1.60959067979232    0.30006848922156
C          19.75996843115783   -1.88490609385508    0.19429938596348
C          20.61015856712808   -0.99660119838600   -0.37720832762871
C          20.13631621737604    0.24953696556811   -0.89387606184060
C          20.99869638972943    1.18133828332344   -1.48274415290571
C          20.51245968689415    2.38356009367125   -1.97286429720579
C          19.16222470379626    2.68489625418496   -1.88875272928443
C          18.26568557820380    1.78031468616029   -1.30831985849363
C          16.86978198539909    2.05983445350373   -1.19211800712325
C          16.01529617695980    1.17086219700653   -0.62739977816786
C          16.46516212612710   -0.09132247461105   -0.12633489003470
C          17.85510966875638   -0.38479257909561   -0.20897927071588
C          18.75014587038074    0.54598762040261   -0.80352755360818
H          15.45791463560383   -2.95406211734686    1.42252187712814
H          17.85254983031485   -3.45564752136022    1.28231885216547
H          20.12693480461234   -2.82785546708520    0.58629529141826
H          21.67044020111669   -1.21482653680454   -0.45143988380268
H          21.19532195390579    3.09455732200546   -2.42518017372268
H          18.79128027982744    3.62878475486699   -2.27347766023466
H          16.50286566762088    3.01038555728427   -1.56536607501964
H          14.96255444326729    1.41363885985552   -0.55160239571065
H         -22.54024664870314    1.29726568598812   -0.75206977152592
H          22.05725080560713    0.95512982320234   -1.55328879739744
