   118
       -231.10564174
C         -23.93897586165101   -1.61276353288445   -0.13640161598105
C         -23.56566420710056   -0.39445837382211    0.41209715104828
N         -22.29576789958188   -0.02098711154079    0.47704680381500
C         -21.37382822005226   -0.86272595608143   -0.00878962601346
C         -21.76373745939977   -2.08015382219175   -0.57147353336721
N         -23.03490364002787   -2.45217936926515   -0.63186467267808
H         -24.30186989989015    0.29690431431915    0.81001707629764
H         -21.04045744798875   -2.77068485235987   -0.99222007400129
O         -15.91951173098439   -2.65628105019854    0.64076170729751
S         -16.10848124292414   -1.63551320332392   -0.36474731466233
O         -15.98492866947731   -1.99755034737914   -1.75804634361938
C         -17.62586850658444   -0.75625619184376   -0.08202120432476
C         -18.89721412132692   -1.26605140683221   -0.18616506268908
C         -19.97768624642045   -0.41191223178474    0.07933786039395
C         -19.71763582651558    0.91579692941889    0.44478534763049
C         -18.42825491972351    1.41103518310847    0.54550817077453
C         -17.35441851854194    0.56605440391040    0.27667967695696
C         -15.92498937882304    0.87446184414113    0.32505063516651
C         -15.31851838746725    2.08406718409720    0.65091864607680
C         -13.93436025945654    2.16882168081392    0.65252739554359
C         -13.12957185357518    1.07136751457943    0.32908982083379
C         -13.73628191341368   -0.14602593072385   -0.01093405508098
C         -15.10844951767946   -0.21182777619336    0.00052218327360
H         -19.04410950228268   -2.30374759679115   -0.45687387983495
H         -20.56018897728826    1.56648200974202    0.65299392476004
H         -18.26230610830714    2.44354650381434    0.83015013864453
H         -15.91541036097385    2.95321488278847    0.90139191083961
H         -13.46617078658760    3.11702993428204    0.89251228215352
H         -13.14101319186762   -1.01777867295409   -0.25232819466828
O          -8.28460144295507   -1.38239521005481   -1.60171025676569
S          -8.30717066438076    0.05960695122294   -1.68231531447602
O          -8.43051889036147    0.68585721026557   -2.97876533642458
C          -9.51272433482563    0.72634902456434   -0.55761415428253
C         -10.87646095915742    0.57369046260648   -0.62658781806142
C         -11.66216111072602    1.19310090377221    0.35573154670918
C         -11.03672335076780    1.93010795439548    1.36696563562817
C          -9.65815299446009    2.06667027147408    1.42330271757420
C          -8.87492160288279    1.45946492967716    0.44594739841451
C          -7.41823870313444    1.47889869054667    0.31854303746040
C          -6.49453342953197    2.10580889774458    1.14937344304321
C          -5.14216406479120    2.00376358938729    0.86100653847824
C          -4.67923364949344    1.28454599014316   -0.24686215515475
C          -5.60974729545736    0.64459592914380   -1.08295544602321
C          -6.94323487243878    0.76040424997716   -0.78278785701381
H         -11.33140247835332    0.00833721006030   -1.43031394970457
H         -11.64249000935810    2.38938386966162    2.14022072554977
H          -9.20203821198205    2.63828868803593    2.22310463511780
H          -6.82160729755661    2.66577508132116    2.01778029921892
H          -4.43476696055690    2.48342056544188    1.52754755803205
H          -5.26708528036893    0.07749606125742   -1.94000272220654
C          -3.25024978518479    1.16093370308916   -0.55278818122595
C          -2.27000142391708    1.99246964614638   -0.00252715448629
N          -0.98392600256701    1.82716334055083   -0.25795938557613
C          -0.64011675359846    0.83422484329488   -1.08766896067233
C          -1.62089451477903    0.03444886541454   -1.68147069000741
N          -2.90431387525804    0.19296162107984   -1.41439808442668
H          -2.52789718592908    2.81581968559964    0.65569426955151
H          -1.34280354148006   -0.75277190082820   -2.37516610695399
C           0.78653105233062    0.62358180318499   -1.31197763907349
C           1.74877107624480    1.39768002276212   -0.65622134381727
N           3.04029852080682    1.17960271973245   -0.80940335491310
C           3.41525202717516    0.18937373200846   -1.63328488187342
C           2.45052803491014   -0.56922148178938   -2.30248406400423
N           1.15339453058448   -0.35991343524338   -2.14224333873992
H           1.44750830863299    2.20028962731577    0.00949969548586
H           2.72945243041406   -1.38097520265699   -2.96684809184629
O           8.43107104089967    2.18826974416904    0.34591498465910
S           8.25496196332540    0.75560670651329    0.39753791027157
O           8.03125771638887    0.12474985015809    1.67811080636274
C           7.02870319848208    0.22931245696986   -0.77459629177053
C           5.68305870319422    0.48326103497531   -0.72036346979407
C           4.85941564091161   -0.05226346920499   -1.72504976632419
C           5.44216988763065   -0.80277380209119   -2.75192528537751
C           6.80875677449787   -1.04138873645542   -2.79305387963448
C           7.62389377263130   -0.52892158832358   -1.78754862430349
C           9.06865978343827   -0.69131577515719   -1.61895215877842
C           9.95940076852989   -1.38957603762095   -2.42955487053460
C          11.29739123143186   -1.45528158621007   -2.06885154412353
C          11.77920374504922   -0.83479331303624   -0.91138276218831
C          10.88874251350351   -0.11435417703506   -0.10233051664112
C           9.56813986189236   -0.06381154967363   -0.47473195434463
H           5.24923801054012    1.07245132770361    0.07840690240882
H           4.82179355794724   -1.20431774603868   -3.54520192439680
H           7.23062030193183   -1.62670534074020   -3.60191349001277
H           9.61729052585242   -1.88145817153704   -3.33268696352968
H          11.98821428325204   -1.99069181760231   -2.71068530136712
H          11.22484997399206    0.36664603737898    0.80769571790086
O          16.52576660239368    2.24301600395359    0.28160518687634
S          16.21861197365605    1.17820272657080    1.20940163763611
O          15.71906126898091    1.51886942965430    2.52165397689326
C          15.17066525332178   -0.03363616817970    0.43994676757055
C          13.86136314803641    0.13537880436512    0.06136204122182
C          13.19506490196381   -0.95069192336007   -0.52460108474709
C          13.88443925635701   -2.15377041552417   -0.70963264502666
C          15.20616792605187   -2.30536570423529   -0.31723426124773
C          15.86781739334422   -1.23317919617366    0.27436762785414
C          17.23809111649876   -1.18680046732526    0.78585578426019
C          18.18799174501009   -2.20512920246645    0.80316874585827
C          19.42966300129449   -1.95967307228867    1.36548466719968
C          19.76378156441525   -0.71552421245592    1.91758597224160
C          18.80964337386409    0.31230391949191    1.89795306176006
C          17.58405759267270    0.04968601538442    1.33585074500230
H          13.36391146042327    1.08710889210524    0.20015376990243
H          13.36599303131552   -3.00045418118316   -1.14576001159065
H          15.70939085841626   -3.25402829975549   -0.46338042918663
H          17.96182922417164   -3.18017572469341    0.38749829444843
H          20.17344043561668   -2.74891399987105    1.38865331758369
H          19.01253733124537    1.28740856999851    2.32179197368859
C          21.09806017251626   -0.53563629040340    2.50751340894150
C          21.61366332129867    0.70059746428764    2.90386785791379
N          22.82156949701447    0.82093783430851    3.43723513870265
C          23.53698287722290   -0.29037031306168    3.58080187932339
C          23.04084831774179   -1.52245878815139    3.18024551865411
N          21.83334573953962   -1.64646954870104    2.64841158604821
H          21.04810398919351    1.61855925261094    2.78397945411089
H          23.62466208581305   -2.43092376289025    3.29037166249778
H         -24.97804177647035   -1.92100050145797   -0.18335756462611
H          24.52350342270245   -0.19013505696852    4.02088203470344
