    84
       -150.26866958
N          13.31710431911162    2.15663337949815    2.19905836529604
C          13.74089687733525    1.41232509781182    1.43015876544252
C          14.29255946501159    0.48473606743295    0.50041439634351
C          15.68016617748782    0.32153978992697    0.45663878559609
C          16.24889058236096   -0.59942251587731   -0.40625775337166
C          15.43650603125788   -1.37023463618265   -1.22865871035582
C          14.05927950131605   -1.21828613065806   -1.18748807671134
C          13.46626169227518   -0.29070680579971   -0.33169314859051
H          16.30438680159389    0.92129091196404    1.10872337326069
H          15.87820374929198   -2.09236087962776   -1.90574519954379
H          13.43200893810183   -1.81386841717888   -1.84156571762861
N           9.08820413127968    3.63832514560060   -0.29359353022228
C           9.46864801435620    2.55179451161197   -0.30603055677932
C           9.99868244381491    1.22973955439578   -0.31345344910405
C          11.38996674355575    1.10174753742257   -0.33054087338255
C          11.99786623768411   -0.14971665945002   -0.30373584947930
C          11.18636852133073   -1.28726987941809   -0.25133727794373
C           9.81116347935409   -1.16686305306559   -0.22231153727696
C           9.18456428756101    0.08304735029446   -0.26296184255261
H          11.99597060984680    1.99896343074553   -0.37495825420549
H          11.64050552498048   -2.27088430699056   -0.20986789657884
H           9.19051144435711   -2.05451249076732   -0.16815454906105
C           7.71604215013955    0.11311382998721   -0.23784526956702
C           6.92671859669920    1.12441175333174   -0.79222793854413
N           5.60657977007621    1.09004811986725   -0.74007254348321
C           5.02076963976946    0.04638102810998   -0.13896883944421
C           5.80888374738058   -0.98973425281683    0.36776479483717
N           7.12887888396304   -0.95590889772250    0.31842252183273
H           7.36794177689808    1.97082596163146   -1.30601860746172
H           5.36897365198216   -1.87498290447389    0.81579055958127
N           0.29171765576319    2.86047388948541   -2.23929615979850
C           0.80597424553169    2.03540480653412   -1.62357702861191
C           1.46422290911832    1.03268861237700   -0.85350719964356
C           2.85652716712962    0.99708101028408   -0.85123563406060
C           3.55362441393319    0.05749885150286   -0.08885817567178
C           2.81935082435414   -0.83638668973719    0.69759922319400
C           1.43610625248721   -0.80043580850354    0.70362249519720
C           0.73148617587858    0.11816071981403   -0.07434329106074
H           3.41303194962579    1.70879653795256   -1.45076275746523
H           3.32530624571327   -1.56583902161355    1.31927296976685
H           0.88817085403760   -1.51393372775607    1.30927366166630
N          -4.09397165745115    0.32837852247415   -3.49506724074293
C          -3.55645853895217    0.24745763944335   -2.48072951894471
C          -2.86444110208013    0.15049940640806   -1.23853711323554
C          -1.46950752051520    0.18577282673301   -1.25115851731273
C          -0.74281993855456    0.11302005310882   -0.06539613932887
C          -1.43881154878145    0.01162284779671    1.14250399620108
C          -2.82223263379345   -0.00747830271895    1.16091946449131
C          -3.56086423944229    0.05349095619916   -0.02091551941839
H          -0.95526991803174    0.25493278246274   -2.20228108825230
H          -0.89113503744512   -0.03337901541026    2.07710547647761
H          -3.34221011883951   -0.09196569000728    2.10877723301916
N          -8.14026739543346    2.40711593090043    2.74479920190469
C          -7.71182794309526    1.65920885576144    1.98137148108004
C          -7.10927368598868    0.77352857768427    1.04284123514850
C          -5.71508085456456    0.79860766387114    0.95862626890905
C          -5.03390732534557    0.01706757320592    0.02931375426988
C          -5.77614937250739   -0.79651669581262   -0.83191212607117
C          -7.15432686329560   -0.83085364704015   -0.74816282480938
C          -7.85284236858381   -0.06357803587697    0.19000083186460
H          -5.16399834819587    1.46270814065125    1.61476178871843
H          -5.26940176238227   -1.41911426733395   -1.55955644995735
H          -7.72109911835564   -1.46911334189578   -1.41710892503798
C          -9.31655515145806   -0.17841222486860    0.22406191222790
C         -10.10622726052260    0.06684589524086    1.35010470737957
N         -11.42105990888176   -0.05793919970931    1.32345915930886
C         -12.00366918627157   -0.43978679538768    0.17938219874145
C         -11.20841574647210   -0.73097178215169   -0.93225129147304
N          -9.89301613862047   -0.60335504751665   -0.90900252424544
H          -9.66805925035958    0.35169279912267    2.29977031828961
H         -11.63694409688753   -1.07663958700845   -1.86744694243636
N         -16.75550336482753    0.20856169936601    3.65921269754258
C         -16.20897373447263   -0.02856168761343    2.67516713206527
C         -15.53511355051100   -0.32318340602137    1.45417047702429
C         -14.14585879713904   -0.24857835508862    1.38752246192009
C         -13.47039624265160   -0.53471889647978    0.19793592254347
C         -14.21898464379911   -0.89577118106651   -0.92712205930481
C         -15.60243276841364   -0.97092293562772   -0.86067705050585
C         -16.26840390231647   -0.68838280214314    0.32060346996182
H         -13.57645643277049    0.03456827782770    2.26554723572200
H         -13.72742337389282   -1.11983323370529   -1.86654366813505
H         -16.16673710493006   -1.25287845452791   -1.74247977558371
H          17.32549675916417   -0.71963592459440   -0.43661975728497
H         -17.34899129607980   -0.74719075859044    0.37223786286623
