   124
       -238.45854182
N         -21.70030534998515    0.86974819981825    1.96638494279138
C         -21.83126815624189   -0.14865552565431    1.44599888465509
C         -22.02217562351924   -1.40120487971420    0.79526795784240
C         -23.32402459213642   -1.88805237665339    0.64691186338462
C         -23.55229857104930   -3.08363151976193   -0.01249592032203
C         -22.48321046255895   -3.79968137404026   -0.53642913964189
C         -21.18943053536807   -3.32191440778946   -0.39786965166024
C         -20.93592395346114   -2.12479533543462    0.27136553640587
H         -24.15148022197942   -1.31679406824232    1.05124974884148
H         -22.65845461816603   -4.73571752263483   -1.05410779810675
H         -20.35889567649493   -3.89388963084804   -0.79618429533481
O         -15.74643328347383   -2.51610992114945   -2.14784760567544
S         -16.12649290053289   -1.17601776308669   -1.76028101653281
O         -16.45149521452368   -0.22027373877399   -2.79515977847303
C         -17.40066934253795   -1.22437260807759   -0.52422302110573
C         -18.68591576123160   -1.68018487054334   -0.68975177745702
C         -19.55028385681733   -1.63903674936932    0.41286927428158
C         -19.07675756805521   -1.15082170356304    1.63388366823845
C         -17.77391707087896   -0.69709445172508    1.78144833115086
C         -16.91405874463007   -0.72842046264814    0.68781800109689
C         -15.51329189059804   -0.30661869581621    0.62393163329462
C         -14.72553046583222    0.22872454677976    1.63901761978664
C         -13.40394619958754    0.55615719508004    1.37278418400650
C         -12.83818862668669    0.36376642419758    0.10782670220315
C         -13.63069371852061   -0.17083024359496   -0.91852994835988
C         -14.93611172919437   -0.48830055983962   -0.63495115672055
H         -19.02726274413514   -2.04253935527793   -1.65142712857859
H         -19.73775346748313   -1.13918761823286    2.49262061895010
H         -17.43551025497965   -0.32632829791136    2.74182057419130
H         -15.13462829992674    0.39158914619991    2.62919598516682
H         -12.80150428806784    0.98828885155956    2.16383716306234
H         -13.22172207279947   -0.35299753382391   -1.90443293147246
O          -7.54121516029216   -0.83530557480606    1.91205589613656
S          -7.73910877400536    0.56135805345484    1.59913376603721
O          -7.78577905117159    1.51734232505852    2.68230442899235
C          -9.14684909050471    0.77149071935117    0.53430268389519
C         -10.45515597959868    0.48216745853060    0.83595207177948
C         -11.42822359679459    0.69926801426478   -0.15080652856440
C         -11.03636133541569    1.21709391446996   -1.39025347420953
C          -9.70989653859560    1.50356193948924   -1.67555755526441
C          -8.73941159239823    1.27043085965275   -0.70523146294977
C          -7.29201790832262    1.45204963863692   -0.81229094983958
C          -6.56323161061728    1.90074628373911   -1.90976794682297
C          -5.17987313422320    1.95478622225179   -1.83158806839361
C          -4.49227044212452    1.56749377509995   -0.67530295593589
C          -5.22826024424039    1.14009618750086    0.44319666962222
C          -6.59568466714606    1.09300475050698    0.34587204082361
H         -10.72031697914520    0.06960447081406    1.80133786204435
H         -11.78853644099827    1.41180851484829   -2.14635774930950
H          -9.43769080416726    1.89968981200840   -2.64685109360209
H          -7.06541129874311    2.20066919148876   -2.82213818325674
H          -4.62907814725803    2.31111152409301   -2.69437162501608
H          -4.71337771982110    0.84678488356378    1.35009827138235
C          -3.02741885794139    1.57144178002566   -0.59642098047478
C          -2.19068471072365    1.70010076822459   -1.70868882113125
N          -0.87488896191239    1.67606073498998   -1.60339619462522
C          -0.33640492599332    1.51732819725096   -0.38629624185528
C          -1.17340559241902    1.37554442815126    0.72424821678494
N          -2.49074967541799    1.40330070120149    0.61976438247849
H          -2.58859520030161    1.81286496785844   -2.71200209705637
H          -0.77524061390858    1.22792109783582    1.72295087600610
N           4.39854456813645    1.24471278022357   -3.84183432115412
C           3.89259405957015    1.32279086303016   -2.81102267358252
C           3.23318530758678    1.40876975480368   -1.55026448121057
C           1.84170373706590    1.44049668790089   -1.53437773158813
C           1.13051798797250    1.48389847988258   -0.33288136782644
C           1.85384960253645    1.48915664925551    0.86459657469178
C           3.23759414244094    1.45255339854583    0.85461279549593
C           3.95518444300972    1.41804913529245   -0.34162704499836
H           1.29702823285895    1.42675789607391   -2.47175318500867
H           1.33941192010405    1.53239753567519    1.81745981134311
H           3.77623435809947    1.47407173771214    1.79544377510278
O           8.38562728436714   -1.84862248384657    1.27846589418218
S           8.55030867156020   -0.44175777165361    1.56538847290185
O           8.48021534709040    0.00007145788154    2.94081900956998
C           7.47496284905858    0.53881109929998    0.54560151988437
C           6.10137412077809    0.55072689828518    0.57248343253608
C           5.42821525681644    1.38861585282180   -0.32810766256264
C           6.17116630396251    2.18948574475664   -1.20095163206120
C           7.55785538467129    2.16565962395407   -1.21006585658785
C           8.22994919216635    1.32418524657826   -0.32878420433124
C           9.67379689208957    1.12835655467398   -0.18986101894104
C          10.69750874694263    1.74149910954250   -0.90590539407933
C          12.01373268233448    1.39895116356380   -0.63507782674042
C          12.34360368050975    0.45116624462417    0.34011372169343
C          11.31471083439421   -0.16091341810297    1.07092057516032
C          10.01757347887366    0.19198123581765    0.78812395980706
H           5.55354674132427   -0.08946993891946    1.25267721191554
H           5.65334659049165    2.85598568260880   -1.88062603395635
H           8.10525827032897    2.79670064478370   -1.90022826484920
H          10.47574908957726    2.47950985581578   -1.66778625601690
H          12.80664903939121    1.89318562901389   -1.18493521383023
H          11.53146055577650   -0.91009594758139    1.82209792640850
O          17.57625494252182    0.91937391377705   -1.94041026297806
S          17.29241551962921   -0.38484685783791   -1.38488981777318
O          17.07910531293981   -1.49388177524569   -2.28674285266271
C          15.96655769699442   -0.27387475005610   -0.20772574441802
C          14.65949498690568    0.04636401954532   -0.47913216713190
C          13.75148665412561    0.09913554740968    0.58860619535222
C          14.20722375038226   -0.18158092237367    1.88123618895639
C          15.53256055076545   -0.50507909686413    2.13446894459908
C          16.43762873144104   -0.55263910057843    1.07755707682903
C          17.86825359705176   -0.86009580877566    1.11675616210051
C          18.65175438684515   -1.17963446606338    2.22174615737910
C          20.00410760480004   -1.43820585144878    2.04770232485617
C          20.60664428283821   -1.38607728384898    0.78615639588675
C          19.81857718746663   -1.05785009900947   -0.32965492518980
C          18.48404192262154   -0.80879183486302   -0.13775824770277
H          14.33895214431312    0.23340662151055   -1.49631600832949
H          13.51368465328181   -0.12527719722080    2.71276080183293
H          15.85442967047076   -0.71160163760281    3.14855539395846
H          18.21616899586666   -1.22550351793476    3.21318619622766
H          20.59972493495305   -1.67475944136720    2.92195507284614
H          20.26820219048656   -1.00660432292543   -1.31389880588922
C          22.03641188626094   -1.65562931926958    0.57583726477395
C          22.87245171758037   -2.22765033123663    1.53697366849082
N          24.15913248911208   -2.45133861360597    1.30687293906107
C          24.63111606271860   -2.11494688760782    0.11028013042397
C          23.80669934624923   -1.56205255158845   -0.85909649487374
N          22.52219937952725   -1.33259965154859   -0.62962815766067
H          22.50068335354718   -2.52288111895535    2.51278546851419
H          24.18538433831861   -1.29525885177317   -1.84063785498640
H         -24.56386815496796   -3.45693923717223   -0.12106246267988
H          25.68493480867579   -2.29518576685443   -0.07373384879562
