   130
       -245.80588997
O          20.42522809327346   -2.64798965382628   -2.70117168386745
S          20.59740405072527   -1.23555890034685   -2.95761184228743
O          20.44076481464784   -0.74991791669928   -4.30991907214153
C          22.12027330636105   -0.65404791857205   -2.25369603191588
C          23.39453374498570   -1.00390474120744   -2.63893306620055
C          24.45891412738790   -0.43293814540759   -1.94560380121219
C          24.22552377757177    0.45695204538893   -0.90460862981017
C          22.93214758429341    0.79898129632981   -0.52722830758248
C          21.85838920280785    0.23612669682689   -1.20965736225616
C          20.42753749265443    0.44677572128594   -0.96926037693241
C          19.82533271177427    1.24753690308140   -0.00357138574141
C          18.44059767973049    1.28462621926412    0.08052738108255
C          17.63318480323756    0.54482496762786   -0.78801961401919
C          18.23480727091065   -0.24899716960241   -1.77393445972924
C          19.60671637317745   -0.27998365927783   -1.83410989172452
H          23.56127119267902   -1.69973879169202   -3.45143240015674
H          25.06577085737146    0.89205418233691   -0.37530944187073
H          22.76692272941467    1.49335420216585    0.28832564597653
H          20.42513057187641    1.83446836354578    0.68221363338111
H          17.97439718273063    1.91425657626955    0.83029042299600
H          17.63593345089133   -0.84448256270335   -2.45176887319348
N          12.55504755290855    0.71020379567673   -3.81380292628149
C          13.17070272418043    0.62725380113110   -2.84503925172014
C          13.95878319003816    0.54754147913287   -1.66015165791812
C          15.34796634847577    0.59326309867258   -1.78274193874647
C          16.16559318974560    0.56149035807180   -0.65558095148914
C          15.56680531507286    0.51100004124455    0.60630238157624
C          14.19022280233618    0.45703495453879    0.73224332088018
C          13.36120920871662    0.45722312028862   -0.39001627074235
H          15.78626747905815    0.66818449970352   -2.77120289803347
H          16.18586455998631    0.47645200123093    1.49559488980561
H          13.74846475476340    0.37852895120747    1.71939061839185
N           8.76680588091376    2.05485652048525    2.96862759534624
C           9.24266162862689    1.50852528899352    2.07484948493532
C           9.86718653831234    0.82078389865165    0.99417757947524
C          11.23517942451144    1.00381172535571    0.78618024669485
C          11.90349599083476    0.31544682341208   -0.22389500345336
C          11.17467420073956   -0.55826918522073   -1.03571418400763
C           9.82095438889186   -0.74925724879928   -0.82826389797051
C           9.14393294998413   -0.07434663461782    0.18752072013752
H          11.77437488624399    1.69776942167545    1.42077915983415
H          11.67622310519848   -1.11227938556393   -1.81998741083508
H           9.27310957138065   -1.42957736676835   -1.47055799872189
O           3.88089415594415    2.22076632389514   -0.25367585632110
S           4.09927011504084    1.48003356308985    0.96703804589794
O           4.19822957252115    2.20040127392471    2.21430374686594
C           5.46805646365066    0.36127686251044    0.77034996569293
C           6.78832792532786    0.69584545959464    0.58375926310153
C           7.71200175543973   -0.34362291309032    0.41275209210949
C           7.26900607527087   -1.66958640300313    0.44277013827048
C           5.93486257277144   -1.98695772284642    0.64539967061811
C           5.01247119600558   -0.95845221857601    0.80918926871825
C           3.56911122800796   -1.07400807850637    1.01643480429267
C           2.81204677100255   -2.23666825815777    1.12170089799921
C           1.44382340110536   -2.13525548391979    1.31922462756448
C           0.80403121996333   -0.89455308526009    1.40770742625726
C           1.56216237268894    0.27932151362505    1.29831087602571
C           2.91847767823730    0.15791352772099    1.11211826588619
H           7.10063443443565    1.73183459881489    0.55107045636251
H           7.99114943928705   -2.46989232316783    0.32451007268471
H           5.62072230549609   -3.02374931135320    0.67190802948916
H           3.27919515017042   -3.21174832750077    1.04842591737954
H           0.85208995777392   -3.04167861483639    1.38268841348912
H           1.09662785697232    1.25376205851009    1.37798948820538
O          -3.97139803761115    0.79731578162964   -1.21848705830537
S          -3.99190760064436    1.05771500063493    0.20263969346336
O          -3.91171829304440    2.42454341707433    0.66330822543138
C          -2.79443755154874    0.04329995383318    1.03683291426228
C          -1.43009423756318    0.08339269291263    0.87889333775348
C          -0.65573340015706   -0.83999535528242    1.59462178964767
C          -1.28761473498247   -1.73805844365703    2.46102092651211
C          -2.66567098553713   -1.75671869610662    2.61306435367203
C          -3.44130626520766   -0.86399279365412    1.87956101686083
C          -4.90057019003804   -0.76103725478244    1.83916542843313
C          -5.83595787945560   -1.53162235920413    2.52341878936381
C          -7.18723380497068   -1.30902969686928    2.30390429705833
C          -7.63608852234496   -0.32647503496913    1.41554130781075
C          -6.69722859213065    0.46412737164262    0.73853301595639
C          -5.36379693083002    0.22517900093101    0.96556416217934
H          -0.96997463374830    0.78574645664035    0.19509370308273
H          -0.68464938048636   -2.43152757015181    3.03661088431095
H          -3.12766863727162   -2.46683771982166    3.28889780499336
H          -5.51871759923224   -2.30216361835265    3.21634679942600
H          -7.91305022116237   -1.90597724297899    2.84486995615057
H          -7.01107367352173    1.22303198914462    0.03280689748822
N         -12.70871009610163   -3.21585311171392    0.63635130762563
C         -12.09358499609211   -2.24856102512649    0.73870346854146
C         -11.29080844649119   -1.07696044925704    0.85752879278171
C          -9.92609683107817   -1.23882832269140    1.09660261597446
C          -9.07676665227381   -0.13733213868601    1.17427932395534
C          -9.61933295414750    1.13936878918489    1.00134704793659
C         -10.97287948878831    1.30494533728378    0.76667531230189
C         -11.83458483003805    0.20983198973522    0.69400354657524
H          -9.52727434108874   -2.24204216862319    1.19389955891810
H          -8.97931101483272    2.01130620175469    1.07208214249428
H         -11.37527584440169    2.30572683639998    0.65628736900503
N         -15.68213080030072    3.17875132347820   -2.64878877927872
C         -15.41456931026400    2.43080781416891   -1.81591685815504
C         -15.04908334548660    1.51069655139680   -0.79108382189256
C         -13.69237003616112    1.32268420294716   -0.52356953395226
C         -13.27285392110248    0.40722386328736    0.43901501614495
C         -14.24086593242100   -0.31090318625384    1.14671239084596
C         -15.58648600438222   -0.13262074828388    0.88090079817841
C         -16.01857211129990    0.77224283640012   -0.08920273444603
H         -12.96184294915216    1.88066514846760   -1.09805965038189
H         -13.93880553465161   -1.00535479137564    1.92143961862737
H         -16.32028898301599   -0.69308024745289    1.44899392805487
O         -21.00472740967587   -2.03491777390562    0.33664262725614
S         -20.81237377063661   -1.33926855441058   -0.91644607455165
O         -20.55203388981418   -2.11421626118716   -2.10852689668006
C         -19.59968259131015   -0.05473275787327   -0.72931661622279
C         -18.26048652516985   -0.22173584945798   -0.47366189522979
C         -17.45858519781023    0.92312734316400   -0.36510115626997
C         -18.04431873262670    2.18364708332002   -0.51001964309746
C         -19.40076506635818    2.33078064427550   -0.76308939516045
C         -20.19968629749716    1.19749182744760   -0.87776059157423
C         -21.63973357004965    1.12555521666541   -1.14354363881468
C         -22.52715985584221    2.17905726796094   -1.33902753771092
C         -23.86605745926233    1.89704603967994   -1.58391331027249
C         -24.32692145396010    0.58739064998312   -1.63545776387405
C         -23.45138007384857   -0.47773723964095   -1.43941162751465
C         -22.12904650837443   -0.18150134164233   -1.19791187839842
H         -17.83172192736031   -1.21187639122711   -0.38148348364435
H         -17.42931488658791    3.07008122492822   -0.40739952770623
H         -19.82671848336988    3.32170280456362   -0.86774784993549
H         -22.18347852442722    3.20621914511985   -1.30186198990863
H         -24.56161637569162    2.71441251168351   -1.73767814861180
H         -23.79636779141155   -1.50331927549869   -1.47568030022161
H          25.47581558256605   -0.68669410543224   -2.22087205120470
H         -25.37485195286990    0.39103709299196   -1.82954841657581
