    92
       -179.66805733
C          19.11652258398892    1.71151938549744   -3.89160287978371
C          18.85704791400954    0.50251472982017   -3.26294419404129
N          17.66174762756168    0.21945416105019   -2.76583554732821
C          16.70004998701051    1.14424124727042   -2.88793851539416
C          16.97585520506814    2.35946815971208   -3.51989145241703
N          18.17256812062480    2.63921981148625   -4.01720629156142
H          19.62556374827584   -0.25673443296530   -3.15654155490944
H          16.22014027082788    3.12967051287564   -3.63149421614445
O          11.67050190532561    3.29409574424888   -1.00666571331721
S          11.56389642802308    2.13577247478325   -1.86457878113559
O          11.07149270670564    2.31015547429404   -3.21227660203338
C          13.09007669012990    1.22855023461891   -1.87320209657117
C          14.28214184352059    1.64938384409312   -2.40971450424012
C          15.38702975902641    0.78879912439651   -2.33091041398362
C          15.22827152974361   -0.45591118875523   -1.70538671721558
C          14.01743742689647   -0.86271382384683   -1.17016208839044
C          12.91761962521036   -0.01155939950534   -1.25311266711713
C          11.55207688592460   -0.23958780357014   -0.78068923885304
C          11.03564420506162   -1.36127697140803   -0.13787526604872
C           9.69256911173903   -1.39241110967397    0.20914733786583
C           8.83425720129530   -0.32191067379129   -0.06939924908259
C           9.35828093866557    0.81633086150753   -0.70762928498487
C          10.68688494623478    0.82766896431454   -1.04255350763677
H          14.34674622473119    2.62170628630889   -2.88082966213376
H          16.08781286872595   -1.11514808407460   -1.64739604215350
H          13.93107672179783   -1.83380785132435   -0.69658387394100
H          11.67114186554762   -2.20967970348689    0.08845140137844
H           9.31174229765881   -2.27750002524341    0.70566190524726
H           8.71272167812310    1.65728722358114   -0.93017351128833
C           7.40313251164384   -0.33919161666667    0.25419908531293
C           6.73734032413511   -1.42494820930146    0.83239667370062
N           5.43435245304681   -1.41353160499798    1.06290233693125
C           4.75774192320767   -0.30792433567918    0.72896219409366
C           5.42252873156874    0.79069897253028    0.17561686091239
N           6.71954901255088    0.77233401083956   -0.06018307704682
H           7.26354711919620   -2.33233047418222    1.11092426817636
H           4.87419853838733    1.69125605747888   -0.08223487803997
C           3.31371906782512   -0.30179868973245    0.93942048838126
C           2.63402122971147   -1.40931092169617    1.45573586737920
N           1.32031518019459   -1.41834718809620    1.60154540509085
C           0.65757234296212   -0.31100119834485    1.23971759555435
C           1.34001952047125    0.80567021317191    0.74636976689719
N           2.65177031013579    0.81125640908376    0.59333660027438
H           3.18067163793460   -2.30182349530507    1.74396372188782
H           0.79427887541417    1.70136276092227    0.46697769437459
C          -0.79686882912953   -0.32784121917500    1.35656198061051
C          -1.49119056082079   -1.45222153812157    1.81196952679841
N          -2.80907939133516   -1.48102175319002    1.86761252991403
C          -3.48122744646509   -0.38589389335085    1.47879361222592
C          -2.77984146732316    0.74705256155650    1.05250752139365
N          -1.45939025246391    0.77514871290515    0.98736432717956
H          -0.95282149866511   -2.34122999603504    2.12547952465493
H          -3.29269194758643    1.65310072183417    0.74732856084854
O          -8.28813643088904    1.88108342413374   -0.70631996454501
S          -8.38423983132504    1.56438600583885    0.70068487441131
O          -8.42688688554000    2.64803563488820    1.65615531071884
C          -7.13681298753158    0.38359999382971    1.15591786475797
C          -5.77807793788100    0.58228104642395    1.13362462297669
C          -4.94466895032649   -0.48240242505910    1.51057510159745
C          -5.53318900146479   -1.69252623341621    1.90676957051142
C          -6.90537488471765   -1.87304302604015    1.92342613721596
C          -7.73292965874945   -0.82200747721582    1.53450776797291
C          -9.19185323937781   -0.80351800216476    1.44376338577818
C         -10.08510063629992   -1.83274426858809    1.72706967488071
C         -11.44487796662389   -1.62438499196851    1.54958075079627
C         -11.94959107767636   -0.40170977778775    1.09063385692898
C         -11.04810186550677    0.64166907817447    0.81427133721964
C          -9.70828563601983    0.41652284928179    0.99584914774163
H          -5.37816897561616    1.53968932796252    0.82506867882687
H          -4.88177189733738   -2.50876862553244    2.19984005891213
H          -7.32539857209109   -2.82429909804676    2.22874742255766
H          -9.72718210307321   -2.79316363015102    2.07959978984314
H         -12.12156540514928   -2.44077670529826    1.77391461054100
H         -11.41753589836078    1.59669962299993    0.46070469431763
C         -13.38117046732539   -0.16342347645219    0.87247392696898
C         -14.37702845833074   -1.12593443992748    1.06496699133721
N         -15.65637755417131   -0.87422834599664    0.83889018800760
C         -15.97882343304201    0.35245880622268    0.41351347363528
C         -14.98846839271038    1.32070156263664    0.22534251910508
N         -13.71383275925840    1.06631110784454    0.45007910014415
H         -14.14115335121162   -2.12849692844205    1.40710395800524
H         -15.25245146910174    2.31641755250884   -0.11693187131389
C         -17.38990348840273    0.63347883881620    0.15282196631834
C         -18.38070684282947   -0.33360604567267    0.33394799084825
N         -19.65837054645486   -0.07827569283345    0.09324044172247
C         -19.95786896588483    1.14726179288001   -0.33113271630975
C         -18.97869492900485    2.11394787440114   -0.51298062904061
N         -17.69809649260911    1.86359909466541   -0.27353563919155
H         -18.12070731634324   -1.32892829525028    0.68014742186840
H         -19.22783654238690    3.11206686214226   -0.85913480925015
H          20.09420228152879    1.94243359751001   -4.30110477634118
H         -21.00352713295528    1.35833195401518   -0.52942719076846
