    72
       -135.57054728
C         -15.86851069853516    0.04202681920173    0.19455021960687
C         -15.09408069318285   -0.34547157944194   -0.88907470783831
N         -13.76996658107036   -0.31385543224495   -0.84450108013426
C         -13.19530631904562    0.10817430021460    0.28903350139515
C         -13.98614535863998    0.50972479740909    1.36766888111250
N         -15.31089280335518    0.47433112921875    1.32175054154460
H         -15.54604371955742   -0.69091706115343   -1.81351283714469
H         -13.54698405853787    0.87805688870860    2.28915605000792
N          -8.62214139476459   -0.24697129151179   -3.30255494444493
C          -9.02915008385231   -0.16420167025361   -2.22899456658513
C          -9.64746717511091   -0.02807709161923   -0.95085375007460
C         -11.03882088488199   -0.03788356812284   -0.90332865913094
C         -11.72562938707621    0.12971865179290    0.30079442420911
C         -10.98027077878265    0.30469654836236    1.47114751642622
C          -9.59774050716626    0.31485077180441    1.43213857233604
C          -8.90204357378646    0.15214024623550    0.23206549552700
H         -11.60459576811816   -0.17574748359263   -1.81811203879127
H         -11.47599725018412    0.41826103778122    2.42819256880170
H          -9.04771217647417    0.42772008683089    2.35970857684505
C          -7.43626972539336    0.15359033601302    0.19588828113632
C          -6.65708015480242    0.83863517988554    1.13359549865237
N          -5.33542377458710    0.82993880651135    1.09061714691108
C          -4.75609206013787    0.14193669578194    0.09847633509273
C          -5.53266147247326   -0.53057367297247   -0.84919589460097
N          -6.85180458379781   -0.52771743757400   -0.79767513070557
H          -7.11322041486649    1.42252205341013    1.92679156372618
H          -5.06010401679850   -1.08299974027039   -1.65495498711474
C          -3.29737215293179    0.12716392171936    0.05164209880332
C          -2.52341640988963    0.77397501798093    1.02009347653119
N          -1.20245241592289    0.75400271039608    0.98877426472843
C          -0.62592846446124    0.08943644086487   -0.02228872930907
C          -1.39999719190347   -0.55016525717849   -0.99571885699879
N          -2.72052615850439   -0.53667606853626   -0.95956429860276
H          -3.00165755755891    1.31215733874810    1.83253782065452
H          -0.92207304528832   -1.08277143830365   -1.81197230775066
C           0.83236513712300    0.05250169064336   -0.05693906621309
C           1.61262980642488    0.63846279721467    0.94378122090967
N           2.93147844761763    0.59463099422129    0.91553076040484
C           3.51696667274985   -0.03448346516878   -0.11526538860757
C           2.73117777819822   -0.62249185382719   -1.11179712425740
N           1.40980061443929   -0.58106627067035   -1.08536003288602
H           1.14154901424852    1.14772116086673    1.77886979830410
H           3.17639174118294   -1.14917668636830   -1.94965770268338
N           8.28832368274060   -1.58741264949678   -3.19284856160998
C           7.80084608980082   -1.11053833612378   -2.26512074678698
C           7.12876226820380   -0.55931312583896   -1.13664543789965
C           5.73321583851086   -0.53535587445767   -1.18200358499698
C           4.98353343435892   -0.07064036601272   -0.10261457292441
C           5.66824780045786    0.36575246090891    1.04090829997405
C           7.04563110602755    0.34350254978851    1.09203300409929
C           7.80959297547778   -0.10434406290106    0.00812291526648
H           5.24781690681180   -0.88882159942648   -2.08402830137739
H           5.09534702219303    0.72106710030102    1.89018276681401
H           7.56425352948116    0.68000274586766    1.98311571937781
C           9.27169548102485   -0.08027989002686    0.13374083575413
C          10.15157252282977    0.06012894093769   -0.94296255066534
N          11.46437093996566    0.07355909812961   -0.78025301886636
C          11.93502929537607   -0.04341331466624    0.46611584824592
C          11.05769186371161   -0.13326458866987    1.54983487749074
N           9.74744814138447   -0.15009823406250    1.38687661137770
H           9.78810781633352    0.18314407523688   -1.95686446386803
H          11.44096881982305   -0.19649986617877    2.56351827555799
C          13.38692256840774   -0.06617006397545    0.64016752944206
C          14.25699790715739    0.01708402413866   -0.44902184146215
N          15.57260990279804   -0.01153842791035   -0.29642377108495
C          16.03131068970978   -0.12466728413324    0.94808611358918
C          15.17302853712663   -0.20696767503363    2.03546365413054
N          13.85439764384912   -0.17815615711615    1.88858706780555
H          13.86637855089580    0.10759406293823   -1.45763294571285
H          15.55297866347500   -0.29920611003998    3.04809544926728
H         -16.95232341779120    0.00986173907568    0.15996247910468
H          17.10856301930629   -0.15023852424718    1.07552584018866
