   136
       -224.65540741
C         -20.63733349591471    3.81969954347007   -0.31000404699361
C         -19.92066129430216    5.00249258898622   -0.40592965319261
C         -18.53870853381352    4.98447048472607   -0.51391022050726
C         -17.84213171279426    3.77095768097469   -0.52977487812548
C         -16.41709784142735    3.71190498979508   -0.62213516094010
C         -15.75984869908332    2.52594873776658   -0.63744406997605
C         -16.46041446184399    1.27946424267119   -0.56887033377871
C         -15.80166651397352    0.03429590008812   -0.57638773334107
C         -16.53857319498315   -1.14052943263246   -0.42608952105593
C         -17.91587710184560   -1.11469987300297   -0.30766997994774
C         -18.60892500851308    0.10076591233831   -0.32338789817787
C         -20.03335609186372    0.16058358565905   -0.21508906658737
C         -20.68947200314223    1.34710681588604   -0.21604740481503
C         -19.97967944360132    2.58442082333093   -0.31984286563066
C         -18.56458173724093    2.55339145337165   -0.43309163936570
C         -17.87595694615213    1.31061117032860   -0.44338755783834
H         -20.44607098223648    5.95121172800164   -0.39450287497408
H         -17.98748589645162    5.91583175727150   -0.58532562069237
H         -15.86567359812232    4.64494550215608   -0.67219368963535
H         -14.67682236416986    2.51089805788687   -0.68690228345784
H         -16.01777482171885   -2.09219160071047   -0.42698295393432
H         -18.46726431202832   -2.04316669826125   -0.20645797024796
H         -20.57965869250684   -0.77308997960171   -0.13096227333425
H         -21.77081822640530    1.38068527284687   -0.13365016014160
N         -11.31404918846125    1.57926434587063   -4.04513667483355
C         -11.73023314268790    1.02529322125375   -3.12529573762033
C         -12.30815046264908    0.38183125508831   -1.99475963714754
C         -13.69331916232055    0.48610994548750   -1.83954752913704
C         -14.33662374699442   -0.06824833656785   -0.73661157666028
C         -13.57066329929919   -0.74651297018163    0.21551019473827
C         -12.19996583886470   -0.84246592322028    0.07382683835189
C         -11.53865916665416   -0.28960829968924   -1.02704338132369
H         -14.27016041009636    0.99861576456647   -2.60080770065917
H         -14.05542241052873   -1.17905276657910    1.08347936711483
H         -11.60967619950261   -1.35179042771235    0.82773538214775
C         -10.07606600017822   -0.41518592240854   -1.08446095854233
C          -9.32137076435542   -0.45291165211255   -2.25789860882452
N          -8.00200315206032   -0.55966586897218   -2.24301490936931
C          -7.39217805929013   -0.64875050676594   -1.05487188926526
C          -8.14907093974201   -0.61880894825416    0.12084090911055
N          -9.46535828544028   -0.51348240309988    0.10585481849304
H          -9.79069127200012   -0.40996467219729   -3.23429195337713
H          -7.67378871462268   -0.63874880730489    1.09636587574920
C          -5.92424187958520   -0.64238335225054   -1.05177600753869
C          -5.29171405993607    0.20280042654431   -1.96873782520120
C          -3.92862937427316    0.41177706387278   -1.93014947544185
C          -3.14220132534578   -0.21349842983065   -0.95384440783581
C          -1.74713757844177    0.05798180304639   -0.82156460235493
C          -1.00121986226555   -0.54153741901583    0.13912165066674
C          -1.57283068077505   -1.49689847123693    1.03775843523254
C          -0.81869755502822   -2.12168189820990    2.05097843224747
C          -1.43370092659587   -3.02297036414182    2.91754274121461
C          -2.77432078668159   -3.33898370026415    2.78835059144824
C          -3.55702025432872   -2.73097738235342    1.80063381657875
C          -4.94264388087207   -3.03443935881069    1.63736587729824
C          -5.70168144979390   -2.38772416990223    0.71745137097541
C          -5.14955263646131   -1.37469402207071   -0.12820909609541
C          -3.74983957861182   -1.13250149579644   -0.05879095767144
C          -2.95804362016684   -1.79105521975970    0.92187572361902
H          -5.90439341786644    0.72146283534836   -2.69825266551998
H          -3.46167448351175    1.08728800320158   -2.63849527277919
H          -1.29629814350376    0.77362259529679   -1.50105411716315
H           0.05127434967780   -0.30186061836587    0.23832437341144
H          -0.84145054347674   -3.49367848844846    3.69479015988260
H          -3.22856649923146   -4.05709505080341    3.46242011565377
H          -5.37964670758504   -3.80132353337843    2.26831787137627
H          -6.74375741636148   -2.65963492897371    0.59338857518409
C           0.60984936426235   -1.78586993814717    2.25388172172301
C           0.97074104784947   -1.09688573720904    3.41045173136898
C           2.27694670463311   -0.69740876436017    3.62742633829164
C           3.27398168163114   -0.98493364980573    2.68898288321567
C           4.61997251519266   -0.53739650484052    2.85227242823274
C           5.57560367117435   -0.83063087279335    1.93628167620546
C           5.28562983894618   -1.61944658469207    0.77807236915990
C           6.26399753138874   -1.94749695282113   -0.18192674406707
C           5.90154678145234   -2.66006902460297   -1.32500310575652
C           4.59989582296059   -3.07989871544523   -1.52627466793028
C           3.60384756356658   -2.78741876602789   -0.58786649427485
C           2.25146394200477   -3.21336765750665   -0.76429343207743
C           1.29190831409499   -2.90056783103060    0.14084772634608
C           1.59470528909286   -2.13210652895688    1.30926267352382
C           2.93854640272923   -1.72507716091721    1.52557675107455
C           3.94455213943799   -2.04552226459141    0.57325232315981
H           0.20374699367518   -0.84849048664486    4.13606201645942
H           2.53182234946672   -0.14401533060262    4.52466530752811
H           4.86118912560023    0.05935358251945    3.72559597773703
H           6.58276687913067   -0.45272737105327    2.07058051364955
H           6.66396312879554   -2.90639908905307   -2.05624527607059
H           4.34456051943763   -3.64359881474586   -2.41693093789731
H           2.00783376100566   -3.79640375228490   -1.64616861825920
H           0.27084203663350   -3.23491165360692   -0.00567280924013
N          10.89133027673657   -2.26427131721401    3.44242244004540
C          10.38515089143542   -1.87714348820829    2.48328437265515
C           9.71160590914899   -1.45151261713802    1.30353374816124
C           8.39025014150729   -1.87205782052819    1.13144334495069
C           7.67340143170460   -1.53878926147193   -0.01487319294509
C           8.32102822530266   -0.81965780246643   -1.02360194952398
C           9.62623434871159   -0.39851407579789   -0.85795710810516
C          10.33999600718737   -0.67565425644717    0.31185547044675
H           7.92988635607587   -2.48426375413167    1.89839236137308
H           7.78364029590831   -0.56755852691553   -1.93091621752981
H          10.11571062433961    0.17606703585924   -1.63677439033874
C          11.69447872792076   -0.12315574293620    0.44106640835062
C          12.28135660034057    0.23800524524340    1.65513782378888
N          13.49015234575631    0.77227410644926    1.72071120613664
C          14.16063679077007    0.95074969859028    0.57625831900576
C          13.54746856214895    0.65001288859284   -0.64367215219818
N          12.33660576843961    0.12469971773324   -0.70982050416743
H          11.75417888243321    0.11866900742510    2.59519063279482
H          14.03378384714695    0.87550499619572   -1.58749343514991
C          15.48519550793068    1.57962863779323    0.67681079378723
C          15.61782039416561    2.64154051304149    1.57595861669785
C          16.79184288665063    3.36087408587431    1.67213069879592
C          17.89280377474566    3.03459132704089    0.87036901263375
C          19.11084289961538    3.78023563696763    0.92150195857721
C          20.17598659534710    3.44208898694705    0.15311419083562
C          20.12268698265360    2.31841400225777   -0.72947303672161
C          21.21481457154987    1.94526576470425   -1.52129825104846
C          21.13676117891013    0.84386766869177   -2.35960539485394
C          19.97553565788957    0.09000976910001   -2.42855297294411
C          18.85877641420332    0.43159255104711   -1.65732046837222
C          17.65359334323259   -0.33525558041083   -1.68149208567412
C          16.57649325927146    0.01935445242598   -0.93697087103383
C          16.59169233239917    1.17993278630732   -0.10003201977635
C          17.80030301243170    1.92423667257141   -0.00969825499892
C          18.92438694041225    1.55956352956048   -0.79874584831896
H          14.76334868762009    2.90774947368175    2.18886909570008
H          16.86348008744908    4.19220068347077    2.36495917798119
H          19.16284325309757    4.62985333994618    1.59433524379379
H          21.09511284361356    4.01680266867662    0.19861792780888
H          21.99337968685155    0.56737753958460   -2.96464250069890
H          19.92649915778760   -0.77372919896996   -3.08284116632355
H          17.62049334002270   -1.22256267188490   -2.30503349389755
H          15.68828966632060   -0.60208502309568   -0.94933377444265
H         -21.71836600732045    3.84558664654556   -0.22466198083099
H          22.12936559696383    2.52653106054130   -1.47306040599091
