   104
       -194.36335903
N          16.13578200138955   -3.31478232057583   -2.30077321648212
C          16.75941455562770   -2.76144958933598   -1.50725470149928
C          17.55098795077197   -2.10544753767933   -0.52116952996821
C          18.89710136773310   -2.45979627334442   -0.39500020521784
C          19.68620667000443   -1.87202556116012    0.57875667378884
C          19.13580785021065   -0.93158517532961    1.44056920620112
C          17.80070356108691   -0.57704911419332    1.32418892862970
C          16.99094056246512   -1.14861715590282    0.34360240260032
H          19.31434497678493   -3.20145986968625   -1.06609445215622
H          19.75016176313450   -0.47040035451310    2.20527389189734
H          17.38176628088852    0.16921781683123    1.99016452677115
N          12.73617536372648    0.40775135708428   -3.45990634085134
C          13.14316401146008    0.20202929702306   -2.40313575438076
C          13.67341218651073   -0.06013501303175   -1.10652702334432
C          15.00892852077917   -0.45173836783352   -1.00598681311350
C          15.57538858592118   -0.74706689584842    0.23096409502418
C          14.77966035892866   -0.64395585226779    1.37508290005287
C          13.45158426210589   -0.26773307574572    1.27996083705797
C          12.87366181602425    0.03496552781270    0.04664489394140
H          15.60620879340147   -0.51226823088365   -1.90787633936192
H          15.20047954563009   -0.87989626906698    2.34595171958844
H          12.85367894158482   -0.18887413888148    2.18098531892099
O           7.87574974806905   -0.34725720266945    2.88573221609711
S           7.80533243475645   -0.62267694801693    1.46811608853060
O           7.61130407385242   -1.98685905474635    1.03303646744886
C           9.18867110521111    0.11316505201012    0.63098410181494
C          10.50419625385880   -0.26886274367119    0.72911512594324
C          11.45614628119444    0.43076129096490   -0.02604690393079
C          11.04051688316926    1.49648387933093   -0.82978892068227
C           9.70695812240884    1.86849546933643   -0.91384712503280
C           8.75616704334538    1.16542936175620   -0.17969568258796
C           7.30695419770287    1.36356931515731   -0.15035528365105
C           6.55187426768685    2.29974071270165   -0.85061324263297
C           5.17098950755109    2.29778055862403   -0.71969906884211
C           4.51016131617709    1.37497250292801    0.09987611674336
C           5.27381565509418    0.44235721338213    0.82351458834895
C           6.63713843502647    0.46135396256592    0.68162771188466
H          10.79367796355480   -1.10555548249930    1.35262397732313
H          11.77806942933595    2.05430054615874   -1.39473124073340
H           9.41515572834424    2.69690672354152   -1.54857759025568
H           7.03178260199048    3.02246533163819   -1.50025042242003
H           4.60207677080026    3.03342660070451   -1.27637889401471
H           4.78258079025545   -0.27714908411864    1.46727797446415
C           3.04857330247213    1.31770131503164    0.21170972689546
C           2.17028318888664    2.09896906377277   -0.54490241735333
N           0.85881954891157    1.96688188837592   -0.45769366542718
C           0.36718868366958    1.05775680534202    0.39542257368778
C           1.24410577525361    0.29694636267579    1.17377922834623
N           2.55525884974283    0.42285941045387    1.07926955169813
H           2.52936568785902    2.84280383064892   -1.24881365024230
H           0.88311315022261   -0.44502418712129    1.87861485679361
N          -4.25556254719379   -1.54697818462957    3.05790242316941
C          -3.77363749604679   -0.86221056653552    2.26825335379275
C          -3.14881405601336   -0.02944826130560    1.29515038674827
C          -1.76384966416598    0.13312186577143    1.35507657523404
C          -1.09204591112725    0.90093441259662    0.40489359552184
C          -1.84486832044052    1.52233027701129   -0.60044744387371
C          -3.21412998283799    1.35867911305355   -0.66808500384691
C          -3.89395546151279    0.57723274981605    0.26814448854615
H          -1.22413591673015   -0.35452303210855    2.15824025598755
H          -1.33279737043652    2.13124296434294   -1.33715398376275
H          -3.77413410800846    1.85352009161825   -1.45368986817244
N          -8.16715469879273   -0.49031565039725   -3.63392301430978
C          -7.78328224550242   -0.32273963326285   -2.56179108268905
C          -7.27496772210594   -0.09254078080233   -1.25063703612275
C          -5.90397146967181    0.11759258679143   -1.10331199237381
C          -5.34968096841382    0.38132262523696    0.14752227112679
C          -6.19975748203811    0.45557548815785    1.25401192927437
C          -7.56147528130763    0.25393822867874    1.11205497574420
C          -8.12500385812746   -0.03482540724878   -0.13119047167354
H          -5.26604994549158    0.05216559849324   -1.97727869732168
H          -5.79426581512055    0.68426467185681    2.23223736545796
H          -8.19944187970524    0.30004771441074    1.98738748422463
O         -13.16184430953393    1.04739995203355    2.44388436433363
S         -13.15266454619657    1.23859154058611    1.01074130117920
O         -13.19442551766595    2.58667637488592    0.48993970093653
C         -11.82021238716294    0.32417993716119    0.27162603530742
C         -10.47597919581261    0.56473691998389    0.42155649634151
C          -9.57453328347704   -0.26745620182407   -0.25681957287879
C         -10.06908686352853   -1.31554619792425   -1.03923852590614
C         -11.43015470179138   -1.54296063148755   -1.17652085647169
C         -12.32946777193552   -0.70922663236504   -0.51829510701498
C         -13.79168498701036   -0.76134961423972   -0.53856482404279
C         -14.61302438729834   -1.65426861073747   -1.22231260332990
C         -15.98755337956303   -1.52715656337990   -1.11150235985929
C         -16.58131362029361   -0.52556314272792   -0.33150703293958
C         -15.75579878915681    0.37187736673790    0.36175426992301
C         -14.39479931509722    0.23052395072271    0.23832998432462
H         -10.12393993076818    1.38974992869922    1.02820682091042
H          -9.37254785950799   -1.97655899481651   -1.54152183968669
H         -11.78304382314128   -2.36247122963724   -1.79137476901811
H         -14.18641012081276   -2.43964009485534   -1.83526825567169
H         -16.63445463422809   -2.21833063465565   -1.64103006710323
H         -16.16407652173678    1.15469841403457    0.98802001865403
C         -18.04802654877998   -0.45412962508810   -0.26534544636737
C         -18.75042776847485    0.61427316504176    0.29705201816141
N         -20.07526461693384    0.64138559019778    0.33895247804456
C         -20.72230290565964   -0.39577686212270   -0.18404137158505
C         -20.03662373493011   -1.45678167666076   -0.75700787249488
N         -18.71235334936407   -1.48813982988712   -0.79825917691828
H         -18.23900998386011    1.47390401159252    0.71718874648228
H         -20.56201348059171   -2.30164083896730   -1.19124609101193
H          20.73023374832058   -2.14828408864115    0.66878044087951
H         -21.80619993581034   -0.37302825089988   -0.14517063021046
