   162
       -276.10391798
O          22.44046466695091   -0.43599278836604   -1.15288197143611
S          22.20648421567012   -1.24254723797374    0.02426065814168
O          21.90805039714620   -2.64771337557805   -0.14546848627649
C          23.51371154998639   -1.02063455778297    1.20527314425153
C          24.82895523325155   -1.40070472989656    1.06295990150276
C          25.69766786401742   -1.13146809908132    2.11769569498258
C          25.23659469427268   -0.50051309017743    3.26636483521076
C          23.90487999477295   -0.12318403195775    3.39431352937435
C          23.02478960144603   -0.38548441418900    2.34919744997670
C          21.59312743141429   -0.07824415034363    2.27759811656549
C          20.79694446484747    0.54395910117119    3.23414198673134
C          19.44636205194133    0.73156711966571    2.97461693283907
C          18.86203103732858    0.30735428267819    1.77810221340642
C          19.66468478517484   -0.30139501683315    0.80284995529451
C          20.99856767691805   -0.47910177795009    1.07919158437447
H          25.17432550500738   -1.89193761369844    0.16206441952206
H          25.92641440422253   -0.29852310166415    4.07815130947542
H          23.56106104128904    0.36766971880547    4.29736630155207
H          21.21961651947600    0.87511104441708    4.17564714080925
H          18.82287218357663    1.20157084376555    3.72726445437234
H          19.24890579107793   -0.60417206274960   -0.14990112553093
C          17.42325422901598    0.52878563621771    1.53427571680525
C          16.90931446107133    1.81629144187874    1.69379868872986
C          15.58244653776056    2.09696097239957    1.42819847128476
C          14.71476758333829    1.08844117226573    0.99365248262067
C          13.34848580226208    1.35404171264771    0.67380039009123
C          12.51731040760882    0.36655037362513    0.25813545322964
C          12.96914636156159   -0.98506402851191    0.13344785476932
C          12.12726109988303   -2.02643210300462   -0.30240759293458
C          12.64236109865757   -3.31183271327588   -0.46897291046093
C          13.96249540236118   -3.59870305862910   -0.17698558642526
C          14.82349736273446   -2.59479516711620    0.27949483094975
C          16.18360821852875   -2.86461638939883    0.61945113642435
C          17.01506014550139   -1.87717009741566    1.03366921917869
C          16.57150269500958   -0.52048356297400    1.13300414546275
C          15.20667009256761   -0.23539969979121    0.85255999689758
C          14.33175135217389   -1.27126162232793    0.42279262276500
H          17.57487383717937    2.61476434610784    2.00398355461338
H          15.20990178022874    3.10878808033202    1.54458978890698
H          12.98918190742935    2.37391463471792    0.76280492754061
H          11.48936477513634    0.59626776227792    0.00066066181364
H          11.98308890594871   -4.10276653098961   -0.81018799675211
H          14.33644939559491   -4.60949127023356   -0.29692112366281
H          16.53909018707393   -3.88675571499521    0.54518020160794
H          18.03629146333451   -2.11384472586956    1.30899309609265
N           7.97438991763252   -2.59060858853739   -4.47463244093892
C           8.34146973440063   -2.32603747704773   -3.41634034405022
C           8.82095342969996   -1.99715539542223   -2.11567849891404
C          10.17969564798326   -2.15002963404059   -1.83813651642034
C          10.69368087438211   -1.80749559067623   -0.59081843862128
C           9.82275822436208   -1.31506214682494    0.38436339987654
C           8.47175551602539   -1.16827950373424    0.11546801178444
C           7.94625054304810   -1.50079752446473   -1.13286287843343
H          10.84050818684766   -2.52719966427169   -2.61022379931839
H          10.20241543565502   -1.07568457093898    1.37122570798208
H           7.80552799993116   -0.81874108657343    0.89626706313597
C           6.49803170981739   -1.39916273454095   -1.40496668844176
C           5.82440759699760   -2.54309501740520   -1.83519317529746
C           4.46295757810631   -2.52962031589912   -2.06826854384929
C           3.72201279178638   -1.35728875278420   -1.88393289440918
C           2.30981352932362   -1.31886962398740   -2.08929036517502
C           1.60526456286255   -0.17285659765251   -1.92194842460444
C           2.24654604828006    1.04804551122309   -1.54112964278351
C           1.53550036551251    2.25209813284331   -1.36560027058582
C           2.19862144522439    3.39018164964260   -0.90837494538501
C           3.56014919109222    3.37534964568152   -0.66749093946842
C           4.30668072957052    2.20820412366601   -0.86582753997500
C           5.72034956969277    2.17024143822070   -0.66560179401653
C           6.42769759265406    1.02741841523098   -0.84643348006553
C           5.78837479564317   -0.19505129147583   -1.22598825543799
C           4.38684566707456   -0.17488501953974   -1.46722326345098
C           3.64584002762725    1.02637074076820   -1.29094381003660
H           6.38073914108264   -3.46432863922360   -1.96782879945689
H           3.96031107580928   -3.43458646471642   -2.39110380030485
H           1.80712340825295   -2.23606958371439   -2.37742634170769
H           0.53039985143933   -0.17447115236596   -2.06317604337950
H           1.63712151533435    4.30740804345263   -0.76780161859931
H           4.05900929707883    4.27730845503261   -0.33029958588743
H           6.22224332357912    3.08619027767576   -0.37187856487247
H           7.50357328442720    1.03130798787482   -0.71187569396120
O          -3.46317468877482    4.61465803395392    0.40406740490906
S          -3.48761066416574    3.20188789349580    0.09558445850734
O          -3.57730484048621    2.25497380496888    1.18567257735428
C          -2.14794687788209    2.77462392746466   -0.99071578370296
C          -0.80976721159137    2.75022223934935   -0.67767312005867
C           0.09101596757072    2.33302144325557   -1.66547314316190
C          -0.38953730419033    2.00043568871019   -2.93563470347866
C          -1.74362024102109    2.04141198264224   -3.23537927027915
C          -2.64670211424432    2.41793079751991   -2.24585664932171
C          -4.10775485285552    2.46233387085330   -2.32801895607755
C          -4.91673961000970    2.14438287714559   -3.41465206442541
C          -6.29581836214938    2.19162856712569   -3.26869886117065
C          -6.89467381099370    2.54403273782750   -2.05613539399880
C          -6.08406394728521    2.89996351242881   -0.96919292695743
C          -4.72076286797359    2.84838808397264   -1.13372539411879
H          -0.46188580755587    3.01653111624020    0.31259820983811
H           0.31628987798573    1.71257461430268   -3.70680247918785
H          -2.08864503860377    1.77260199491188   -4.22700106099927
H          -4.48080877394657    1.84932153662697   -4.36207292228361
H          -6.92737986064460    1.92158473351940   -4.10795802566803
H          -6.52082416271129    3.21818338108812   -0.03099541056330
C          -8.36677733537332    2.54342991236479   -1.93873391446930
C          -9.11119111238219    3.28026056543427   -2.86021701387838
C         -10.49072863594965    3.32928576777981   -2.79195688913566
C         -11.17960004066261    2.62191487590169   -1.80022052323434
C         -12.60286371025776    2.66646901721251   -1.69210175921835
C         -13.26021825599116    1.95253970065984   -0.74504343567276
C         -12.55849162557015    1.11929576763111    0.18233070982525
C         -13.22024972100415    0.35336221521845    1.16255719784072
C         -12.47575427604266   -0.36941713855299    2.09515817727788
C         -11.09464044220221   -0.38962588509240    2.05064477233745
C         -10.40457815844839    0.32268503047796    1.06354348867301
C          -8.98181123860895    0.27757084212983    0.95611885832644
C          -8.32522279845041    0.97514797909863   -0.00323910522141
C          -9.02582782768700    1.80477842637767   -0.93492890957166
C         -10.44609314846584    1.84295461926057   -0.86760952475063
C         -11.13752872611191    1.09807202051750    0.12779727397591
H          -8.59118154292656    3.84355621887021   -3.62769997972929
H         -11.04709777330003    3.92175861989346   -3.50997709160399
H         -13.15134203338095    3.29307928901082   -2.38756040804289
H         -14.33989307047871    2.01818790693035   -0.67076904181319
H         -12.99677987493357   -0.94935052321052    2.84938391815689
H         -10.53812486336629   -0.97327474510383    2.77565274289787
H          -8.43258412678319   -0.34186071885601    1.65710898846191
H          -7.24669580899021    0.89980815114872   -0.07913944647748
N         -17.90219768516262    0.83276459000255    4.75229033021144
C         -17.39938294840738    0.62933983953346    3.73713736585169
C         -16.75318991414230    0.37424851818728    2.49337901545233
C         -15.36652611593080    0.51219956438316    2.41253816128582
C         -14.69362630556752    0.25825421273642    1.22065174529586
C         -15.43239800907273   -0.14595537197634    0.10500293398713
C         -16.80696081714297   -0.29232478072197    0.18325581564766
C         -17.49221629213562   -0.04240687214208    1.37244002280401
H         -14.81390146302131    0.83264974777255    3.28838273713875
H         -14.92167073377344   -0.37123522151133   -0.82440367735110
H         -17.36438807316350   -0.59248369254522   -0.69705703483009
C         -18.96081208340530   -0.18375532332174    1.43896199842131
C         -19.72650648905947    0.90801385565718    1.84898082623242
C         -21.10743508882248    0.84918227316310    1.87226610025624
C         -21.77806511460400   -0.31464845094350    1.48049626374793
C         -23.20535277477516   -0.39826432373996    1.46820956097298
C         -23.84015203176499   -1.53278926537913    1.08311925687854
C         -23.10447562345043   -2.69225097039271    0.68288060690776
C         -23.74038307204248   -3.87286670057630    0.28267148913020
C         -22.99924204574075   -4.98259881027507   -0.09335181272725
C         -21.61365511688157   -4.94536963088786   -0.07685968888692
C         -20.93804846202599   -3.78369851955054    0.31346213795896
C         -19.51137082999238   -3.71146508162913    0.36016977986894
C         -18.87466177591209   -2.57110256099057    0.72490229596556
C         -19.59856672998118   -1.38587570885830    1.07238219752777
C         -21.01857492655084   -1.44635324833753    1.08364856560406
C         -21.68545517357489   -2.63904651983173    0.69406371156204
H         -19.22539946826289    1.82651604137957    2.13390442426596
H         -21.67872530675779    1.71555447262614    2.18710789093209
H         -23.77175268381845    0.47507682857224    1.77438781371269
H         -24.92394712231767   -1.58399321007151    1.07424509408561
H         -23.50887099611118   -5.88924493329299   -0.40095299649831
H         -21.04314898533794   -5.82076331170483   -0.36806921970466
H         -18.94261030003767   -4.59881583388610    0.10219266820785
H         -17.79155261763318   -2.55063253888707    0.77278514477904
H          26.74011317189097   -1.41705204355418    2.03985835935088
H         -24.82420447664124   -3.91468132727158    0.26833168644948
