   162
       -276.10419527
N         -23.04654102218329   -1.11803071994981   -3.78112055710858
C         -23.58073141056119   -0.28946895526466   -3.18761105320740
C         -24.27954079022656    0.71502667144055   -2.45824308677313
C         -25.49614687358147    1.18832415026730   -2.95773874469104
C         -26.22387053424653    2.12910685888371   -2.24942553425188
C         -25.74765929429969    2.59939061243198   -1.03191111449237
C         -24.54373705070571    2.13261038817082   -0.52773200126374
C         -23.79024211883900    1.19327320330723   -1.23054165446745
H         -25.86413069946347    0.80792650423725   -3.90343143983808
H         -26.31568638447434    3.33504534462897   -0.47418339686982
H         -24.16873467353262    2.51507314443333    0.41516027377604
O         -18.11086249366777    1.53390332894457   -1.97566447424418
S         -18.58062714796744    0.19858497030558   -1.67799435477111
O         -18.55691393943827   -0.79499433618242   -2.72587619009264
C         -20.17778834182127    0.27406366531876   -0.90146189058222
C         -21.35299055573925    0.69245254872788   -1.47759661776132
C         -22.50431015411859    0.72271271430398   -0.68002004258066
C         -22.42242860445901    0.32707469126826    0.65776098961435
C         -21.22923568113307   -0.10784637143459    1.21667523756744
C         -20.08111638980301   -0.13452972829962    0.43098011284660
C         -18.72890212393557   -0.53810060151135    0.82136751160812
C         -18.29544587450816   -1.01431776048560    2.05502486035367
C         -16.95743897336941   -1.34225018852388    2.22224550299781
C         -16.03085138186331   -1.19870286973498    1.18606227817947
C         -16.46516046983258   -0.73260428498967   -0.06250720136462
C         -17.79410569211854   -0.41641301562383   -0.20929075551730
H         -21.38318243892934    1.00818478786891   -2.51264080658624
H         -23.31829870726081    0.34303781181900    1.26871052778734
H         -21.19775879145731   -0.41771379113659    2.25472675120322
H         -18.98937848616426   -1.12750394587132    2.87987076547412
H         -16.61569995955112   -1.70205904603283    3.18648642967241
H         -15.77668964164624   -0.64518446595647   -0.89354552333876
C         -14.61767025628746   -1.56842793267407    1.40119615207576
C         -14.32855212970265   -2.84956282731967    1.87145553949985
C         -13.02406510428981   -3.27026674095460    2.04994473340596
C         -11.95504092806465   -2.41070779033066    1.77335749716793
C         -10.59586516825489   -2.82380628622540    1.92293427784862
C          -9.57014371347213   -1.97434082847728    1.66892187608217
C          -9.80535991478874   -0.62662371962694    1.25116928542001
C          -8.75427565806444    0.27344066118869    0.99137146275996
C          -9.04261560317015    1.56238964071440    0.54049608945872
C         -10.34664170909387    1.98407408843773    0.36017729302998
C         -11.41664538620639    1.12119499245515    0.62221899394892
C         -12.77502560084934    1.53548524290826    0.47589550608155
C         -13.80147359440069    0.68611360531208    0.72767848362212
C         -13.56890538651261   -0.66483757941883    1.13717990395770
C         -12.22543867888485   -1.09146300101895    1.32472517521253
C         -11.14842039219906   -0.20012669431220    1.06454754559656
H         -15.14580368103097   -3.53399567335367    2.07223201132200
H         -12.82360434739775   -4.27681134404472    2.40023461216223
H         -10.40098591841893   -3.84229139521110    2.24196033792315
H          -8.54501895024818   -2.31171713475331    1.77454510989242
H          -8.22459145516814    2.24954921753147    0.35335767326844
H         -10.54667489894045    2.99448930117007    0.02097331273006
H         -12.97081394611416    2.55591865579825    0.16430681312858
H         -14.82389944432782    1.03298302830362    0.63138084969164
C          -7.34184469776711   -0.09679927155959    1.23021573266373
C          -6.92749718029872   -0.39939599573445    2.52772522337018
C          -5.60265814270002   -0.67687476695348    2.81066731052551
C          -4.63695692548861   -0.64955423578533    1.79820018262375
C          -3.25979875271562   -0.92476751979182    2.05638401905828
C          -2.33187827161910   -0.86335233476551    1.06923184880047
C          -2.69037724996802   -0.52192594393474   -0.27328457222467
C          -1.74281091949688   -0.42441815223954   -1.31196391007396
C          -2.17065874029762   -0.19132209234195   -2.61983127159011
C          -3.50809467246032   -0.01175693152158   -2.91681010042376
C          -4.47256987841062   -0.04869578549386   -1.90349960766229
C          -5.85890341519817    0.16295806910123   -2.17335056516131
C          -6.77928470959360    0.14783308598355   -1.17799447773599
C          -6.40201345719099   -0.08916194759255    0.18129573865233
C          -5.03564354250613   -0.35293179521419    0.46903143269251
C          -4.06514482366106   -0.31125147563932   -0.56951702804766
H          -7.65806277224193   -0.39243735159878    3.32938939456223
H          -5.30325783050735   -0.90471350548558    3.82790235290376
H          -2.96904784287528   -1.18973025977693    3.06751995916812
H          -1.29565534545389   -1.09565317596002    1.28806025676538
H          -1.43216516688508   -0.12216877358654   -3.41134158082139
H          -3.81499853255441    0.17708692708102   -3.93962620902382
H          -6.16106831589510    0.33821951689573   -3.20043130121298
H          -7.82810545238212    0.30458809524430   -1.40384647374401
N           2.71819752737259    1.77278802886757    1.89023063276296
C           2.27525161557047    1.06787871809680    1.09516790422483
C           1.70033174126498    0.21034218470721    0.11384987594844
C           0.32064851471638    0.26670035140833   -0.09023303583560
C          -0.29201914398733   -0.52387553239786   -1.06013472746086
C           0.50604828418485   -1.36749307036774   -1.83772461539831
C           1.87497046656709   -1.42186446771593   -1.64498765814730
C           2.49800791590819   -0.64205939224997   -0.67005954290008
H          -0.26955001025128    0.96159540866743    0.49586839633135
H           0.04522530324393   -1.99523230280987   -2.59194813121023
H           2.47375041420541   -2.09422603111362   -2.24920542696682
O           7.32043461660826   -1.90446606052444   -3.52546162284691
S           7.37394677399506   -0.68964216910393   -2.74173077303811
O           7.36033906668953    0.58061168053980   -3.43236434404856
C           6.13989633424011   -0.72175963518379   -1.46539161412964
C           4.77897597463413   -0.67962093446219   -1.64263277450470
C           3.96113228144157   -0.69969988098358   -0.50440345865990
C           4.55247228080369   -0.77479632634971    0.75970048310479
C           5.93039628875252   -0.82279160066110    0.91707760133989
C           6.74726194848935   -0.79225856509285   -0.20941260180410
C           8.21005342944526   -0.81889477749189   -0.27246539864674
C           9.11755931588126   -0.89641820841431    0.77976545915976
C          10.47823996868339   -0.90320898750656    0.50487765031723
C          10.96370249063610   -0.82796021667315   -0.80440577833188
C          10.05251578371945   -0.76631060506860   -1.86790264625238
C           8.71084456065167   -0.76108459066087   -1.57566275385775
H           4.35023776613570   -0.60755311866176   -2.63439365023950
H           3.92071159148973   -0.80966719455276    1.63966317341634
H           6.35940726413322   -0.88236840282531    1.91049884584765
H           8.77158476541826   -0.95686372104665    1.80514631164288
H          11.18153155267118   -0.99308266769861    1.32519513122890
H          10.40021761851209   -0.70664175843323   -2.89165477635120
C          12.41046775734769   -0.86217106775621   -1.09272187976512
C          12.87562887601661   -1.80322368097047   -2.01300473411204
C          14.22133827773162   -1.92048151275773   -2.30237745183392
C          15.15794573516254   -1.08706748389479   -1.68041663375366
C          16.55770655259906   -1.20072071977164   -1.93996834995271
C          17.45324725832502   -0.37722464581605   -1.34169621311468
C          17.03370326730663    0.64266054687142   -0.43085932403940
C          17.95001027208067    1.50630629283850    0.19979688534096
C          17.49056593298070    2.44998018412481    1.11836808619321
C          16.14292932096720    2.57554454389554    1.40308005868860
C          15.20229829117809    1.74828273624260    0.77924397617249
C          13.80052234616543    1.87978690907213    1.01715628914081
C          12.90309476321658    1.06032900771648    0.41519276405183
C          13.32021053999521    0.01616957438168   -0.46976100667925
C          14.70713042756136   -0.10320382268829   -0.76200804748376
C          15.64830029870263    0.76077676322042   -0.13704180717664
H          12.16520306780038   -2.47146179233280   -2.48763149592708
H          14.55925163484496   -2.66836212471210   -3.01121928421731
H          16.89108255534261   -1.96953496749680   -2.62901768189375
H          18.51310755496849   -0.48626540640181   -1.54294446318598
H          18.20457914031316    3.11248894940640    1.59552576869694
H          15.80719297777747    3.32787724757161    2.10851208223387
H          13.46395583198972    2.66401961306130    1.68716785724593
H          11.84264883825620    1.20196167509716    0.59043569492180
C          19.39225893640521    1.46363194905092   -0.13372339339062
C          19.79537894256900    1.80997684136703   -1.42379052687957
C          21.13261920869456    1.83538264785975   -1.77649695886904
C          22.12195597465767    1.50400831270833   -0.84432319617987
C          23.51285169814570    1.52218283516026   -1.17562715816372
C          24.45775014422440    1.18804082511060   -0.26240608492016
C          24.09806974955658    0.80248780627302    1.06721400807189
C          25.05712393842808    0.44584696065751    2.02184206375220
C          24.67520240519493    0.07342274549188    3.30137959118342
C          23.33636028474419    0.04700068606519    3.66033723025166
C          22.34486413442626    0.39630664793377    2.73682691311971
C          20.95350771420220    0.36913877868313    3.06551520240995
C          20.00765372383980    0.70974375313930    2.15571923213557
C          20.35844603404313    1.11654204851122    0.82906192470001
C          21.73304401530721    1.13479428299238    0.46991621354563
C          22.72380812576557    0.78001389948304    1.42410791655006
H          19.04199054650587    2.08348108228546   -2.15461364005926
H          21.42001731113930    2.11770345080945   -2.78346870458355
H          23.79561766845949    1.81054445285708   -2.18272135945464
H          25.51035653962266    1.20440455146401   -0.52535225984518
H          25.43159109958161   -0.20146478295763    4.02843370360427
H          23.04922819276897   -0.24761048178618    4.66391826003005
H          20.66781245020743    0.06145033801232    4.06602982557429
H          18.95695879907923    0.66985942670411    2.42169107045952
H         -27.16470650630143    2.49470835569139   -2.64397938335444
H          26.10772825321197    0.46165443254226    1.75231059543731
