   136
       -224.65618082
N          18.85976943465755   -2.91396220027281   -2.51608493400948
C          19.13799373234320   -2.12686565084171   -1.72364166866614
C          19.50161301387785   -1.15013444589158   -0.75297057352790
C          20.84223537428297   -0.77416351081743   -0.63107237986339
C          21.21496731652935    0.18841764630951    0.29143761279226
C          20.25276561147912    0.78230961994280    1.09910633641188
C          18.92034644397849    0.41708529834310    0.98136939297493
C          18.52277437281258   -0.54765263160178    0.05616833747014
H          21.58509045165660   -1.24309582911716   -1.26595796759273
H          20.54284943120929    1.53148817785294    1.82712021349589
H          18.17679763828160    0.86875100331419    1.62854324128401
C          17.10653838946041   -0.96002479225445   -0.04242143161974
C          16.78323632284353   -2.30244838411341    0.15379428898864
C          15.47093320815446   -2.73525705213475    0.12576623232759
C          14.42768219304008   -1.83206872770322   -0.10654934541372
C          13.05943704843565   -2.24236133815065   -0.11097356488344
C          12.05932983645552   -1.35651101565701   -0.34184312124126
C          12.33224337274491    0.02285671536338   -0.60522000643543
C          11.30840119858270    0.95895529505105   -0.84622222263735
C          11.63271702561535    2.29937997620561   -1.06017913298657
C          12.94662218185263    2.72929347347964   -1.05579149527090
C          13.99016959253273    1.82619063120969   -0.82434298517743
C          15.35859354283961    2.23384415985165   -0.83167766194592
C          16.35824286331878    1.35028810089667   -0.58938826445288
C          16.08585489830816   -0.02561110589365   -0.30718331540088
C          14.73398847725639   -0.46535021722359   -0.33539539937438
C          13.68462001387053    0.46054311703514   -0.58848163394291
H          17.57814182690209   -3.01282517968291    0.35254354058103
H          15.24337383472931   -3.78231532855532    0.29266443026655
H          12.83643368812010   -3.28623527332870    0.08308155277371
H          11.02602393186865   -1.68479556435698   -0.32481705548131
H          10.83532540818786    3.00837486765196   -1.25512302776891
H          13.17481384717295    3.77402786724862   -1.23694708358130
H          15.58375304044799    3.27389665615949   -1.04337912279233
H          17.39060977525329    1.68016392537151   -0.61955599785797
C           9.88654608773787    0.55252124291000   -0.91245425040969
C           9.46821534276636   -0.31507070292078   -1.92140710382933
C           8.13675127830943   -0.66209216818828   -2.05964523789338
C           7.16999403316203   -0.14448564481642   -1.18982583036378
C           5.78681741136456   -0.47419546797172   -1.31044479366305
C           4.85947429131484    0.04815337436265   -0.46950246279145
C           5.22164265433452    0.95207613828398    0.57724477465966
C           4.27692901557349    1.51682427783006    1.46436227751500
C           4.71923251088619    2.34988670683354    2.49782544238521
C           6.05573914157910    2.64707440296012    2.66757217109793
C           7.01684427890859    2.11984498518866    1.79749363902733
C           8.40510515791395    2.41596101312172    1.94584772486276
C           9.32630670210774    1.91625698631876    1.08568582746299
C           8.94412775268518    1.07248593680634   -0.00358494861626
C           7.57210997153218    0.73021601284904   -0.14773969213616
C           6.60040107805960    1.26469296354988    0.74376271983731
H          10.20103152667861   -0.70202363349679   -2.62107287004391
H           7.83295288778955   -1.33291403169603   -2.85585551943779
H           5.48849853845047   -1.15899240556497   -2.09733760335995
H           3.81706073575205   -0.22034205805169   -0.58763241380462
H           3.99022518533895    2.79961706478059    3.16326801552191
H           6.36681981275498    3.30396656041803    3.47251093789037
H           8.70883811055581    3.05258959295443    2.77025085544539
H          10.37772870782334    2.14411081783711    1.22110397643685
C           2.83060309741338    1.28732229861895    1.34323946325324
C           2.01773749705603    1.17282112273281    2.47708571563538
N           0.70569809651438    1.05228041824683    2.39657009101322
C           0.15053169314174    1.01973965152171    1.17632670999076
C           0.96386968476965    1.08701895140314    0.04451195221418
N           2.27826845802474    1.22646444744262    0.12524102246779
H           2.44647399831394    1.16444938768655    3.47445854861877
H           0.54575372175185    1.05609427764699   -0.95673616289019
N          -4.65531487805404   -0.04439818071988   -2.17886216705683
C          -4.11134064121842    0.21969388801314   -1.19980460510934
C          -3.42103353897597    0.55723481487070    0.00087095566484
C          -2.02544345867189    0.59284757418735   -0.00852255327516
C          -1.31566038652708    0.95044053599936    1.13643505617284
C          -2.03400928196547    1.27468355158282    2.29463924025395
C          -3.41493974282850    1.25228108708973    2.30431862096866
C          -4.13443841065636    0.88620937896414    1.16678704523455
H          -1.50717031105481    0.32791384989897   -0.92281164220063
H          -1.48682413453703    1.55108839308537    3.18916929855119
H          -3.95312936007931    1.50786404166795    3.21038855821405
C          -5.61173902692764    0.89757678151934    1.20095425914791
C          -6.25092159563871    2.09925969287524    1.50569266327842
C          -7.62994935197411    2.18913156740047    1.53882209859096
C          -8.42189763043617    1.06643245639130    1.27440756366488
C          -9.84868820058005    1.12412962259562    1.30872750773734
C         -10.60333977372930    0.02818129823956    1.05026235617309
C         -10.00348960104485   -1.23110363862869    0.73001139777643
C         -10.77079777707280   -2.37966616518920    0.45054991049958
C         -10.13310835494450   -3.59854372435987    0.22435739708874
C          -8.75368953972454   -3.69776785496198    0.23020726537611
C          -7.95898484409819   -2.57107386278547    0.46890255730155
C          -6.53246809531032   -2.63907207122973    0.48147765931360
C          -5.77672698799592   -1.53799482565744    0.71514172498118
C          -6.37426206864036   -0.26019406898630    0.95411884856052
C          -7.79273139947973   -0.17214415856147    0.98337806812342
C          -8.58578496705879   -1.32426068093261    0.72687761834649
H          -5.64937471040960    2.98112693452421    1.69852906302599
H          -8.10490864710598    3.13675272268324    1.76828083683310
H         -10.31850370549880    2.07102296391807    1.55333665365154
H         -11.68480179633064    0.09027579017902    1.09230131606607
H         -10.73539758706729   -4.47742160567391    0.02075684036437
H          -8.27918545975611   -4.65465696397365    0.04155979677206
H          -6.06224548955403   -3.60049765460603    0.30365737151682
H          -4.69580830564792   -1.61758226957061    0.73472244851689
C         -12.24939989097554   -2.32832505392168    0.40995344987790
C         -12.97448536915488   -3.08122016816691    1.33226013018605
C         -14.35706790892698   -3.05359269814684    1.35058344537654
C         -15.06604303610931   -2.26238033066887    0.43982478155780
C         -16.49290418296625   -2.21504183589036    0.42692882476162
C         -17.16436507829602   -1.42756282406736   -0.44989875634361
C         -16.47561483910832   -0.60913100392864   -1.39967354121148
C         -17.14523563942356    0.23355666650613   -2.31021069622075
C         -16.42089606912840    0.89170038597702   -3.30689240385091
C         -15.04638728956731    0.79053010167639   -3.38174391826319
C         -14.33959381606641    0.01959540218287   -2.45083562645288
C         -12.91574343926179   -0.08273519912132   -2.48337483396006
C         -12.24248524123367   -0.82992664112702   -1.57438190759062
C         -12.93085836344361   -1.55226836807333   -0.54894269650146
C         -14.35078625262402   -1.50396964152691   -0.52308512557933
C         -15.05688911137809   -0.69803805449505   -1.45819928553623
H         -12.43787970956950   -3.68306876784245    2.05779838862465
H         -14.90066076300036   -3.64263417340940    2.08119582117075
H         -17.03433655413557   -2.83459888358365    1.13402478067854
H         -18.24835940729165   -1.43561192373421   -0.45750507005436
H         -16.96295275407360    1.50543097700854   -4.01823568401432
H         -14.50378363755997    1.31999164827680   -4.15709976263812
H         -12.38005004404045    0.45410722374900   -3.25909130572842
H         -11.16170761528957   -0.89960167811917   -1.62020145426544
C         -18.59349793399869    0.48928988484630   -2.25427261387532
C         -19.27066529842342    0.75920030042308   -1.06246992537261
N         -20.57040530536679    1.01926286209391   -1.03502462559412
C         -21.21059601885489    1.02944698211423   -2.20143902164199
C         -20.53746401588884    0.81476309700347   -3.39385065918673
N         -19.23726406927235    0.54996486035657   -3.42548691585937
H         -18.74347566509037    0.79682561277061   -0.11458918079185
H         -21.05209268420615    0.85606122658402   -4.34861785955247
H          22.25605639123188    0.47527565823393    0.38385490434834
H         -22.27671712623398    1.22969433292354   -2.17774145026346
