    66
       -123.43217035
O          -8.45251600363781    0.54780712602927    3.22284470498808
S          -8.53694630190677   -0.40941694040096    2.14237973650407
O          -8.55636200773596   -1.81933335154343    2.46175090225757
C          -9.86935197091830    0.00308803109469    1.04354266429851
C         -11.21615880841185   -0.04015798517954    1.32431149573422
C         -12.09972303299227    0.32196661583200    0.31039283957945
C         -11.62278804431530    0.71233168611657   -0.93465888340085
C         -10.25935520999444    0.75157416042532   -1.20191203281185
C          -9.36434819795934    0.39098061428742   -0.19968564396405
C          -7.90096999378334    0.35263697104462   -0.27113584329978
C          -7.08347222589216    0.67056423360159   -1.35113807984807
C          -5.70741168669912    0.55632502967029   -1.21681028446297
C          -5.11739506789837    0.12954688816164   -0.02269041935299
C          -5.93759827020713   -0.18593670063493    1.06935492812836
C          -7.29747412676183   -0.06659051062180    0.91629539851301
H         -11.57471123651922   -0.34617615858766    2.29891293661850
H         -12.32513836864562    0.99044044568335   -1.71246910680039
H          -9.90218504502769    1.05775997116154   -2.17823654563531
H          -7.50979713988369    1.00626535604207   -2.28928380106762
H          -5.07464760826938    0.82290253185910   -2.05606042917352
H          -5.51487090075759   -0.53524430272305    2.00313271393330
N          -0.24546192798939   -1.51417595670727   -2.92831336255993
C          -0.79544485897622   -1.06903195788635   -2.02109135550235
C          -1.51126164443500   -0.54559702442218   -0.90522494737687
C          -2.89983242065790   -0.44899493142862   -0.99113974480837
C          -3.65292629437429    0.01203185448683    0.08674726977011
C          -2.98927099255021    0.35747010700805    1.26800821960137
C          -1.61171640062603    0.25962573854188    1.35977392896624
C          -0.84784135668009   -0.17931050325863    0.27888387870032
H          -3.38954470144286   -0.75969030117059   -1.90684491389089
H          -3.55354862759066    0.73096383677101    2.11477563192525
H          -1.11416631234453    0.55454702414488    2.27702995821911
O           3.93923302373750    2.37044346062658   -1.57991863939437
S           3.99132435553462    0.92550675747942   -1.60764209434261
O           3.95745764532958    0.25353226630515   -2.88516465343927
C           2.78095803870000    0.25299185802452   -0.49479077696238
C           1.41641592150793    0.31711767087763   -0.63433061186538
C           0.62214698622691   -0.23977722221305    0.37690469205093
C           1.23607288407193   -0.83290176099483    1.48316837970119
C           2.61780573634983   -0.90311979943390    1.59666624432150
C           3.41173457503071   -0.35292486071392    0.59484261404095
C           4.87366443038540   -0.31526093480731    0.51413479156315
C           5.80126957004859   -0.84759431363711    1.40468870898795
C           7.15599157110704   -0.71667015033458    1.13303870535215
C           7.61624319383629   -0.05889354402601   -0.01157306844281
C           6.68530425906027    0.48303746392657   -0.90836535127011
C           5.34946057841286    0.33942629134898   -0.62445186276044
H           0.96733825211873    0.80034632779298   -1.49266829499213
H           0.61808770595278   -1.26823326574068    2.26074677866804
H           3.06681321650627   -1.38142473508816    2.45932411041737
H           5.47573764025823   -1.36076425559548    2.30210543848707
H           7.87420326434174   -1.12179747699909    1.83726806207929
H           7.00771314093831    0.98257420093479   -1.81336722392348
N          12.85582372416300   -2.86928162419472    0.18582626386322
C          12.15509239848241   -1.98393222678098   -0.03465399415856
C          11.28572107917949   -0.88626326481315   -0.30000126146978
C           9.92215143894553   -0.99934158348485   -0.02480013073404
C           9.05993189542704    0.06412449818348   -0.28560184541999
C           9.58207933278763    1.24483008024930   -0.82100815430526
C          10.93764456380418    1.35822480556320   -1.09058231906518
C          11.79468546517353    0.29977352191928   -0.83650120681140
H           9.53595732967992   -1.93092752538020    0.37236879034231
H           8.92570499145161    2.08650107565112   -1.01027763481284
H          11.32801920859593    2.28187557991232   -1.50251905616098
H         -13.16710254618732    0.29722748875780    0.49620239283896
H          12.85345191492395    0.38330359928706   -1.05030960616537
