   156
       -268.75245833
O         -21.85107213485983   -0.74827960251078    3.76751583746260
S         -21.94762405673699   -2.02726509407228    3.09955458139408
O         -21.55266726075271   -3.21822590468929    3.81869861625768
C         -23.56105435961870   -2.23492859602500    2.38730000267720
C         -24.75266853552802   -2.36570927587063    3.06373570388053
C         -25.91262786133385   -2.51631976232676    2.30783419100330
C         -25.85203440088387   -2.53251770137980    0.91980873117355
C         -24.64051168231813   -2.40011585558037    0.25166590341713
C         -23.47297379610287   -2.24784314295216    0.99327017961835
C         -22.10377136618375   -2.09383506316032    0.49548646331605
C         -21.66766251779442   -2.06233329509262   -0.82557871241112
C         -20.31422547243664   -1.91457833209241   -1.09320656820957
C         -19.37158380703734   -1.79560832526774   -0.06619985091814
C         -19.81148574031175   -1.81302648486718    1.26810543245328
C         -21.15257301236677   -1.96312123877701    1.51135431625901
H         -24.78539316968460   -2.35180195561115    4.14588172143898
H         -26.76475856972560   -2.65043575712283    0.34652460675882
H         -24.61003306692242   -2.41554175496629   -0.83162927578506
H         -22.37356501451248   -2.15033890999147   -1.64339104739100
H         -19.99174915685077   -1.87904221518762   -2.12766880812678
H         -19.09539359919988   -1.71363421861252    2.07484034316317
C         -17.93468686859740   -1.65667954606962   -0.32725815883902
C         -17.32942522272179   -1.97738730957469   -1.54397116205377
N         -16.02866183703986   -1.84007586846519   -1.74226144713050
C         -15.28650000445774   -1.37037050797415   -0.73112431154471
C         -15.88320515230185   -1.10671138823256    0.50641244862995
N         -17.18214022893067   -1.24262147553751    0.70207432985252
H         -17.90321913222380   -2.37249284035073   -2.37641965913397
H         -15.28804184082464   -0.81265633236564    1.36496947580773
C         -13.83900438121998   -1.27923553624919   -0.96065639241917
C         -13.24510998081804   -2.32430261377913   -1.67450934191454
C         -11.87764142879717   -2.39312143162258   -1.84330402550646
C         -11.04501896393481   -1.40622443042844   -1.30057749366879
C          -9.62411638926087   -1.46939472845556   -1.42324059795792
C          -8.82869539547972   -0.50606518778397   -0.89590498493822
C          -9.38079121879754    0.61992792960685   -0.20840324909884
C          -8.57049387692588    1.63503992808303    0.33578175557355
C          -9.16143064107193    2.74492220745419    0.93843046376029
C         -10.53676267560707    2.85830724834300    1.03381768900732
C         -11.37234350415795    1.85469789325652    0.53010963880674
C         -12.79513251851301    1.94140192666372    0.60881894830891
C         -13.58968431398984    0.94979140440822    0.13306613575895
C         -13.04024091611778   -0.22606810544113   -0.46814525781742
C         -11.62823981433836   -0.30281184595120   -0.62392107207847
C         -10.79378635404796    0.72368335381079   -0.10201766905979
H         -13.88465271205665   -3.10256308647630   -2.07689747702848
H         -11.43804089966188   -3.22286442737455   -2.38586221920008
H          -9.19128309573013   -2.31215395172143   -1.95193403957407
H          -7.75150631422555   -0.56926280762819   -1.00287097478146
H          -8.52709004927152    3.51867485907520    1.35697888591929
H         -10.97608981777186    3.72665219631161    1.51264307944167
H         -13.23284982713274    2.82858761840762    1.05420961096938
H         -14.66738701603332    1.05794321410322    0.17803004336725
C          -7.09508805191666    1.50618987963866    0.32813248599612
C          -6.51276083594358    0.48823902219571    1.08400333961927
C          -5.14013448419337    0.33529918026799    1.14249531539678
C          -4.29764417617325    1.19660435681623    0.43101685284395
C          -2.87788404066437    1.04900449500478    0.44951243708423
C          -2.07438104565088    1.88105086193129   -0.25749738817198
C          -2.61135101067376    2.94900629039411   -1.04411257046689
C          -1.79762799143877    3.81597740298213   -1.80165922951929
C          -2.38296168533852    4.79410721275066   -2.60424870188165
C          -3.75583128614356    4.95421487811123   -2.65089593560463
C          -4.59656389273530    4.12263349165062   -1.90226225722741
C          -6.01901829574271    4.25400087188664   -1.93916413732757
C          -6.82170689009444    3.42723891304329   -1.22455802453900
C          -6.27891236610066    2.39132041270485   -0.40057108044312
C          -4.86709577962803    2.23384349311619   -0.35217068626674
C          -4.02358967161353    3.10427715232684   -1.09616485190396
H          -7.15361431111520   -0.18265085162280    1.64578113284635
H          -4.70835768419293   -0.45860078275450    1.74200289464860
H          -2.45183354056205    0.24328966114468    1.03777372935052
H          -1.00102696836678    1.73138655681694   -0.24325116036639
H          -1.74450294181345    5.45275319263666   -3.18331592005177
H          -4.18854476893837    5.73069793372971   -3.27223661984979
H          -6.44628127630020    5.03148488919024   -2.56382078986232
H          -7.89975193684511    3.53357525265857   -1.27616816677959
O           2.45767293540588    2.52631819864988    1.75123645116098
S           2.81192367862545    3.58651825594801    0.83334991258034
O           2.96906580155224    4.92764052071695    1.35089448896908
C           1.72782176154861    3.58155795058997   -0.57199416225961
C           0.36812892996529    3.77499149178851   -0.55597417249386
C          -0.32580538308470    3.69035368952599   -1.77071819549114
C           0.38745098487537    3.46615547895674   -2.95082312129653
C           1.76127191301506    3.26604595725833   -2.94521267456417
C           2.44903481364524    3.29994263514340   -1.73542816643823
C           3.86601864377438    3.02629768303730   -1.48813702113624
C           4.84344364656747    2.63614239652075   -2.40084400120762
C           6.11580319173390    2.33553580301110   -1.94209513186988
C           6.45483305974518    2.42321775388432   -0.58549380854333
C           5.47917008176257    2.83687714430997    0.33340040550283
C           4.22202975541919    3.12105423172328   -0.14010432098882
H          -0.15456791499681    3.98974298308503    0.36758555904582
H          -0.15314425689544    3.41305960894514   -3.88949676870169
H           2.28432071919772    3.06741586649723   -3.87353387478455
H           4.61155005125730    2.54894099333382   -3.45603933298499
H           6.87717534044042    2.00773328614850   -2.64178215680393
H           5.68916831766946    2.90122526230808    1.39346786888019
C           7.79818950811880    2.02131621876147   -0.15459846582478
C           8.35053412211349    2.35644647488392    1.08339210382972
N           9.53808332456904    1.91863467311376    1.46596933489151
C          10.22777246279232    1.14513498533652    0.61645411469004
C           9.68135396074537    0.82408590210580   -0.63071472678423
N           8.49184820172202    1.25689467608797   -1.01040421118142
H           7.82453872702993    2.99615921919003    1.78479192075952
H          10.19835669945649    0.16120614310820   -1.31713392778963
C          11.47733699911493    0.56561138996544    1.12520846516405
C          11.47602206127369    0.15956909578670    2.46383061422635
C          12.54197910486616   -0.52394228872040    3.01008558010031
C          13.65963915036551   -0.83804293226071    2.22644326175893
C          14.75596870682718   -1.58967106758597    2.74653913916756
C          15.82777027429077   -1.89699933537406    1.97463920546856
C          15.91106300457175   -1.46763729605690    0.61317463854060
C          17.01541606982808   -1.77921757403084   -0.20392023320801
C          17.07741419355428   -1.27494572883137   -1.50319733363699
C          16.06242874376097   -0.48735578780256   -2.01518414110189
C          14.93561326654413   -0.18438981470250   -1.24205169144627
C          13.87107268609151    0.62737414407222   -1.73752114573732
C          12.76929832531320    0.88140210911235   -0.98712506005382
C          12.62411259870076    0.34916367454871    0.33245056707099
C          13.71206724148028   -0.38540116651439    0.88194071595190
C          14.85401987342801   -0.67727372961477    0.08606287052007
H          10.59885172503190    0.37232023670769    3.06542648397127
H          12.51057228918036   -0.84159898302637    4.04648520838872
H          14.71126774209749   -1.91385498897040    3.78092628699092
H          16.65259753767310   -2.46592072998640    2.38899745499336
H          17.92867309753467   -1.52624596500306   -2.12658921637000
H          16.12975872048283   -0.10967685701340   -3.02971493512917
H          13.96467186648029    1.04718856413890   -2.73363208184571
H          11.99263967622978    1.52932757741394   -1.37719734802652
C          18.08385872087251   -2.68585263959911    0.27289449403055
C          17.75495260320239   -4.00808333137940    0.57539594898761
C          18.71943383641760   -4.91669982026307    0.97141067328840
C          20.05908413541064   -4.52923940251084    1.08515792380964
C          21.08155625111738   -5.44532261444721    1.48512553836757
C          22.37463114576730   -5.05218357413574    1.59378102221138
C          22.76401956218779   -3.70437394394727    1.31452740378077
C          24.09249161612963   -3.27806538879787    1.42291772415300
C          24.43749054597517   -1.96414311749505    1.14608925443106
C          23.47316379882756   -1.04650056497186    0.75905831813404
C          22.13280937776427   -1.43049621350096    0.63862084793523
C          21.10782763570298   -0.51042540611112    0.25485126246293
C          19.81538649475695   -0.90364444755453    0.13777129925383
C          19.41972007812455   -2.25650172977052    0.38667314125756
C          20.41400240741647   -3.18568079715855    0.79554673877737
C          21.76834325231661   -2.77388988491184    0.91543232002425
H          16.72386096508263   -4.32971578591240    0.47482585695036
H          18.43924570921502   -5.94130277401649    1.19077968403332
H          20.79533299739314   -6.46952782992143    1.70089949995341
H          23.14235937467615   -5.75612878001540    1.89780875558717
H          25.47219021064284   -1.65110425438734    1.23460974134356
H          23.75396647412403   -0.02051873376162    0.54673406095885
H          21.38797322396955    0.52013668539242    0.06284418394535
H          19.05166599448468   -0.18606330135638   -0.14162023930704
H         -26.86853442347576   -2.62122772376769    2.80742735957096
H          24.85503588541558   -3.98718029455662    1.72675995493662
