   136
       -238.90749613
O         -18.70364368446788    0.04180939654646    4.31537010947156
S         -19.09474365175573   -0.64385355921954    3.10393407682790
O         -18.89929826660684   -2.07394462007082    3.02168388958279
C         -20.75463502782759   -0.20911007699299    2.64805213449246
C         -21.90870746901846   -0.53325287405581    3.32442399266699
C         -23.11684329664097   -0.09272740128408    2.78955602559020
C         -23.13869051755984    0.64825801068651    1.61489947780793
C         -21.96379597048247    0.96794775788353    0.94435616388837
C         -20.74919362831366    0.53383931953015    1.46539837320575
C         -19.40603140953861    0.74765452911190    0.91863496277536
C         -19.04455292340650    1.43275602464015   -0.23732948349281
C         -17.70493941218579    1.50837348719515   -0.59082979911791
C         -16.70408208093256    0.91348264873417    0.18382674450599
C         -17.06453632345278    0.22777205531726    1.35207837413736
C         -18.39552580079333    0.16421890758134    1.68503683907789
H         -21.87693833477661   -1.11181948077399    4.23886398645474
H         -24.08803768547584    0.98274246145359    1.21202963011617
H         -21.99803868568981    1.54618953569493    0.02861718194475
H         -19.79546435213833    1.90628308849686   -0.85875227422182
H         -17.42884267682471    2.05814505046099   -1.48364463891778
H         -16.31826249367089   -0.25958199343797    1.96677493427541
N         -13.00645313368891    0.78762491449491   -4.44471333020384
C         -13.25522350213548    0.87599895318846   -3.32461485520834
C         -13.58464954341281    0.98019220509370   -1.94221164526054
C         -14.92540668987255    0.92206769829115   -1.56060581485695
C         -15.28891304937208    0.99409606372574   -0.21760205150521
C         -14.28127123078516    1.13422981417175    0.74196775638183
C         -12.95033485209413    1.18860150499161    0.36785090324739
C         -12.57447043240994    1.10540503861990   -0.97314319493168
H         -15.68261476306786    0.79362719311213   -2.32543117887729
H         -14.54295742447971    1.22214601888312    1.79008923236573
H         -12.18559080154598    1.31865783936575    1.12526674366431
C         -11.15223690974023    1.18104310160080   -1.36328235698850
C         -10.74770360751386    2.17611900261265   -2.25294100603041
C          -9.42009910278318    2.32248612595223   -2.60799394691926
C          -8.44344980740017    1.47157676229575   -2.07866545769611
C          -7.06338142822804    1.59872664502748   -2.42288162416509
C          -6.12637340133267    0.77299674871414   -1.89466201120390
C          -6.47856178455291   -0.26186553474048   -0.97169359712011
C          -5.52390224404753   -1.12950929865409   -0.40563987483394
C          -5.94042977765075   -2.17748865671684    0.41592635434081
C          -7.27560722688276   -2.36472721480958    0.71882493039635
C          -8.24878571358822   -1.49990595567252    0.20613275606654
C          -9.63538555629116   -1.66230566756528    0.50556089990919
C         -10.56720086828861   -0.81182147449261    0.00922462863310
C         -10.20246608882757    0.28312968341697   -0.83634920092544
C          -8.83364610453839    0.43779242242824   -1.18815670035823
C          -7.85249677740939   -0.44096252659733   -0.65161302441294
H         -11.48899777459174    2.85723345636967   -2.65580256359117
H          -9.12820203583724    3.10747171497979   -3.29678542440501
H          -6.77884931366080    2.37350173410681   -3.12710355609638
H          -5.08745310819318    0.87798348729858   -2.18669020575372
H          -5.19503406573934   -2.84022767426718    0.84214956581882
H          -7.57438670780925   -3.18108282632678    1.36699920419194
H          -9.93026544470536   -2.49147500864607    1.13983920689155
H         -11.61586032808154   -0.96659757977389    0.23665896318810
N          -0.62773974323691   -3.91499502164335   -2.17988933548259
C          -1.19157659530924   -3.01256977578735   -1.74201464174741
C          -1.92395753819821   -1.90162885346606   -1.23205702704612
C          -3.30478520892235   -2.02723908908061   -1.07717031187191
C          -4.07470372524691   -0.95582553179161   -0.63164721265217
C          -3.43875780570051    0.25646554307627   -0.35019716604562
C          -2.06891631337338    0.38651996327195   -0.50153144493943
C          -1.28634084242957   -0.68521127364112   -0.93074388219533
H          -3.78055918960524   -2.97014719278659   -1.32081652170171
H          -4.01839443568676    1.09287922634880    0.02330851197499
H          -1.58974906930956    1.32646825988752   -0.25051691698154
O           3.52010613475085   -2.37429369492697    1.62591409023464
S           3.62938957031979   -2.35143120351645    0.18453460799953
O           3.71100503365281   -3.60476606548876   -0.52776848851048
C           2.37341645612111   -1.30274990055006   -0.50699291239396
C           1.01721485879105   -1.51253168271077   -0.45984117576314
C           0.17786444152798   -0.53860128257569   -1.01765008694180
C           0.74370848130550    0.59415750641553   -1.60940505010294
C           2.11811521720557    0.78149332254178   -1.65800445767648
C           2.95536247053567   -0.17411842708068   -1.08992423060353
C           4.41623153080461   -0.15553111135107   -0.98969218124576
C           5.30285205279794    0.80978759838786   -1.45808788775536
C           6.66354907010591    0.64488576313495   -1.24064622007377
C           7.17121049765946   -0.46666215808293   -0.56068323928262
C           6.28147634887655   -1.44367607077800   -0.09246046091277
C           4.93937525560841   -1.26284436923587   -0.31806403117872
H           0.60872925960312   -2.39357871606848    0.01828769754408
H           0.09274942461698    1.33942137889234   -2.05321748839083
H           2.52813923249253    1.66855627730360   -2.12665252653699
H           4.94052942875557    1.68627789525550   -1.98271798785604
H           7.34695190925423    1.41095157773668   -1.59004512772435
H           6.64076221825072   -2.32755372748895    0.41943015825480
N          11.24490416166053   -2.24373036566090    3.36132811261435
C          10.89659450043315   -1.83035684275647    2.34554137835260
C          10.45345225389110   -1.30797605848999    1.09567266011230
C           9.08633926686641   -1.15142712067980    0.87060242395301
C           8.61801292010684   -0.61718697133714   -0.32850370278939
C           9.54717840163148   -0.23764789404623   -1.30172691437845
C          10.90533249388054   -0.39068724218533   -1.08141934319440
C          11.38432043199530   -0.92440483719392    0.11455679711699
H           8.38999983532506   -1.43230046745610    1.65222928448928
H           9.20328022529511    0.15661902945816   -2.25134117760774
H          11.60877661229077   -0.11592321162592   -1.85939649807136
C          12.83085451699000   -1.12546611649971    0.33649470976193
C          13.29148050092632   -2.41437302499003    0.60607791389860
C          14.63721860641320   -2.67050730268237    0.78627007314956
C          15.57432774150100   -1.63364139249577    0.71762564681650
C          16.97343611471485   -1.86902235189973    0.87866585660044
C          17.86785859073434   -0.85094211725113    0.83755284526366
C          17.44905539101456    0.50269966919146    0.63937232614665
C          18.35750615348218    1.57914946116278    0.61299116715372
C          17.89941043855782    2.86568336095561    0.33071035691659
C          16.55679058713573    3.11827018475830    0.11838193995771
C          15.61974493514787    2.08088281219908    0.17751963005542
C          14.22083763943337    2.31520455185582    0.00981470643218
C          13.32475054709396    1.29912979725714    0.06426350349973
C          13.74202500812372   -0.05328781354974    0.27450031100685
C          15.12678030749500   -0.30968236435740    0.47128581501484
C          16.06641960870211    0.75693202091116    0.42644296028005
H          12.57868236696743   -3.23015109116177    0.65366372713468
H          14.97318503051633   -3.68292578271450    0.98088462012551
H          17.30836632318227   -2.88961884300769    1.03088549742877
H          18.92695791798503   -1.05714239692826    0.94317871590482
H          18.61048650277932    3.68446217478617    0.30602192474205
H          16.22167585329667    4.12995489756237   -0.08271728173391
H          13.88670128847571    3.33462298063634   -0.15274360345613
H          12.26563204154521    1.50582119601622   -0.04219917882660
N          23.87970801525483    2.48257092883392   -1.40932563524695
C          23.09172236445776    2.11921943563947   -0.65370830511802
C          22.11529843492902    1.67258996930506    0.28278777366788
C          20.75702501692171    1.83030395388736    0.00040058983909
C          19.79457986611136    1.38739349204222    0.90390286197232
C          20.20695203718971    0.80139742005554    2.10361915311617
C          21.55639054509081    0.64894078536494    2.38634707504352
C          22.51494635132085    1.07640768414968    1.48203883392336
H          20.45349718277784    2.28530201390613   -0.93541224788919
H          19.46441697577351    0.48410688568445    2.82699089957246
H          21.86256809260913    0.19495986773937    3.32203997875312
H         -24.04549994762075   -0.33124834916904    3.29442753926018
H          23.56962581562406    0.95609524268310    1.69867800207613
