   130
       -217.30219505
C         -19.65702769384255   -0.38727407159125   -2.45902040519384
C         -19.23423325391111   -1.46923283210766   -3.21574667899555
C         -17.88578633141754   -1.77207547825596   -3.32504105177074
C         -16.92568621270894   -0.98862848540964   -2.67505211469944
C         -15.52714875447655   -1.27499948603275   -2.75547787276416
C         -14.61205125473012   -0.50209123651983   -2.12023407866567
C         -15.00299836395094    0.63700618737851   -1.34662258956113
C         -14.07005782316056    1.44870788289583   -0.67442317001119
C         -14.51688155268707    2.52149730630003    0.09816141471709
C         -15.86389118648725    2.81459762076946    0.21010414521800
C         -16.82018120212428    2.03375491414891   -0.44852015907262
C         -18.21987094073564    2.31073386902519   -0.35549467115819
C         -19.13318658421236    1.54159287400016   -0.99805528874502
C         -18.73043246381556    0.42120818627387   -1.79100957985805
C         -17.34642080552286    0.12291155498971   -1.89931181724752
C         -16.38810916837655    0.93167239814624   -1.23182706717417
H         -19.96607009319732   -2.08582513588513   -3.72625926604103
H         -17.56645042387686   -2.62265244859240   -3.91759885648881
H         -15.21128182347994   -2.13505368380736   -3.33681176858940
H         -13.55694273102765   -0.74455451056007   -2.18437432851784
H         -13.78741164898205    3.14613147108160    0.60249247735990
H         -16.18515254991481    3.65914160039873    0.81011314884451
H         -18.53536143161654    3.15678887453231    0.24629705253406
H         -20.19295118324734    1.76124884920817   -0.92048621190091
C         -12.61409165577084    1.20940271868376   -0.79409869232716
C         -11.99682993152317    1.36374520046343   -2.03552955311120
C         -10.62945124527753    1.21475489926422   -2.17830304294314
C          -9.82800219637263    0.89623668014875   -1.07597622844992
C          -8.40910562433706    0.77900972605869   -1.18002103662487
C          -7.64688707474330    0.46233942211662   -0.10354469640229
C          -8.22945129713821    0.21571350137699    1.17944512786168
C          -7.46305664788261   -0.11770950667949    2.31505170241973
C          -8.08105978360306   -0.21986834386320    3.56411635528048
C          -9.44522096041621   -0.06692094902884    3.70498935620581
C         -10.24661564539692    0.21628979692875    2.59194057013226
C         -11.66366024070849    0.35299465365596    2.70001780826360
C         -12.42565705071096    0.66043647033351    1.62142279410061
C         -11.84068930569679    0.87308974545399    0.33375072091912
C         -10.43568818246013    0.71202469224037    0.19300803408771
C          -9.63583641725105    0.37837468597080    1.32070616823058
H         -12.60149033330794    1.63132373205242   -2.89531052410620
H         -10.16783711125463    1.35564387864717   -3.14963154961003
H          -7.94705277249353    0.96396708617127   -2.14414136912003
H          -6.56853795401355    0.41743784890902   -0.20448573993350
H          -7.46451919115056   -0.44299184235060    4.42817162983025
H          -9.90613632471302   -0.16908365308297    4.68135374804292
H         -12.12151783445686    0.20142803058208    3.67189954479731
H         -13.50174940702183    0.74770144676609    1.72177656935724
C          -6.01428874318438   -0.36323835223336    2.26322253965108
C          -5.40495000059960   -1.17487137659217    1.30120320272808
N          -4.09753891048620   -1.37919420025164    1.27744680755336
C          -3.36540794891453   -0.78077281457344    2.22564925113594
C          -3.98054077373093   -0.02724862771616    3.22817667369808
N          -5.28613027997900    0.17427073085571    3.25206781367786
H          -5.99465071090018   -1.69232308470495    0.55107449309724
H          -3.38769156100214    0.41797624018841    4.02110188166348
C          -1.91673796471601   -0.95433655404076    2.17847676483736
C          -1.29532643093409   -1.79715647857548    1.25581536250008
N           0.01835996755501   -1.94727565931995    1.21395306928761
C           0.75382411737371   -1.24816100212563    2.08921604096099
C           0.12506863084528   -0.39800299788817    3.00738743192247
N          -1.18731786716332   -0.25428315131413    3.05780684555434
H          -1.88814087742757   -2.36383658010426    0.54439847944564
H           0.70663358858779    0.20021329671583    3.70206084573325
C           2.21721849709813   -1.38614897384221    2.07582038691082
C           2.88656764519208   -1.37951254615104    3.30440185495615
C           4.26021663059278   -1.48317101901791    3.38311644477274
C           5.03231049958178   -1.58475310795559    2.22034931353656
C           6.45531661913856   -1.68699951807648    2.27255319536580
C           7.19636581941220   -1.76330779876186    1.14009339223560
C           6.58027015318979   -1.75107326252857   -0.15075378583968
C           7.33492269575226   -1.82042748401874   -1.33813891075006
C           6.68568099842756   -1.88842269314193   -2.56912761280793
C           5.30596545117042   -1.83645239240673   -2.65153472713804
C           4.52615657277704   -1.71818588185344   -1.49526847784615
C           3.10435401648860   -1.60881732445151   -1.54675755047977
C           2.36296149111124   -1.49460774941484   -0.41679350727789
C           2.96411444538280   -1.50194589772674    0.88067663522441
C           4.38278825229333   -1.59331729253643    0.95818750150624
C           5.16278588136891   -1.69102255187895   -0.22772781981228
H           2.30939240615436   -1.31982128871248    4.22085908730197
H           4.74909098365179   -1.48719256664535    4.35120382885726
H           6.93378230323142   -1.70067440556942    3.24622886490513
H           8.27607659662899   -1.84334378308573    1.19749239606303
H           7.27866339899338   -1.95774195419856   -3.47469098191352
H           4.81967057723137   -1.87370046544150   -3.62027154822431
H           2.62366081991160   -1.60917546464243   -2.51944823004833
H           1.28662632085613   -1.40345354396772   -0.49117043862265
C           8.81570345055665   -1.82196520005041   -1.30211691140931
C           9.50663515815782   -2.96120982810934   -1.70939268712760
C          10.88838881640418   -3.01011468828986   -1.66937519891312
C          11.62871904723811   -1.90664543307008   -1.23017004665363
C          13.05321477661932   -1.93311264933302   -1.14908279534747
C          13.75783986650963   -0.84944274267004   -0.73864729711145
C          13.11145992482365    0.37445295727390   -0.37947104775626
C          13.82082906060328    1.52191997012591    0.04275847931371
C          13.11235161021356    2.66589447404332    0.42403200625362
C          11.73354437008887    2.71067577950457    0.38128922479949
C          10.99875732482568    1.59654816013680   -0.04055802407038
C           9.57305878250622    1.62068870618573   -0.11102363447188
C           8.87036283587952    0.53377099526025   -0.51425894727785
C           9.52903637602041   -0.68201721495587   -0.88095649583150
C          10.94882579611503   -0.72288496378198   -0.84336198340867
C          11.68932225522404    0.41545870109841   -0.41882109617813
H           8.94506943896101   -3.82775248921866   -2.04133722372957
H          11.40750609483965   -3.91220111708707   -1.97455775818512
H          13.56676708171046   -2.84933889832123   -1.42112007025098
H          14.83785339632754   -0.90345712692831   -0.68317435851109
H          13.66053699620539    3.55072476272538    0.72931033665954
H          11.21139463496951    3.61725829810168    0.66729930974367
H           9.06088876288024    2.53667740555210    0.16432299478085
H           7.78841422218811    0.57417670534756   -0.56942752818396
C          15.28925822013391    1.56754301432008    0.09204946855352
C          15.96509997303362    2.22679967809701    1.12569341726107
N          17.28209938692974    2.30013312942316    1.17698505400266
C          17.97891203070099    1.71180730661937    0.19465551097584
C          17.30837963573059    1.05067980504244   -0.83482247573969
N          15.98711960490373    0.97971722108362   -0.88748126932360
H          15.42016416956520    2.68624956159628    1.94464418548849
H          17.84604957279640    0.57992809822872   -1.65214309512208
C          19.44322537269673    1.81525232871459    0.27350106885735
C          20.30793488931605    0.98223649786757   -0.43974284631967
N          21.62655211156331    1.09575415702817   -0.35316382762805
C          22.10020412718814    2.04233457499454    0.45227388555155
C          21.24956523491551    2.86752941064989    1.17378401660494
N          19.93171563396497    2.75858759532850    1.08825611046288
H          19.93246057620589    0.19590907792919   -1.08710420293011
H          21.63605240455296    3.63666834249960    1.83513949012510
H         -20.71494212559284   -0.16093273547869   -2.38002831116614
H          23.17887545574481    2.13716180895379    0.52137879982043
